dss/import/decsa/Red_MT.txt
New Line.IDLinea1_IDTramos_1 bus1=1 bus2=2 length=517.363 units=m r1=0.00048417 r0=0.000629602 x1=0.000315326 x0=0.0017084 c1=0.0117887 c0=0.00367967 enabled=True phases=3
New Line.IDLinea2_IDTramos_2 bus1=2 bus2=837 length=307.326 units=m r1=0.00048417 r0=0.000629602 x1=0.000315326 x0=0.0017084 c1=0.0117887 c0=0.00367967 enabled=True phases=3
New Line.IDLinea3_IDTramos_3 bus1=853 bus2=854 length=43.514 units=m r1=0.000952086 r0=0.00109752 x1=0.00033682 x0=0.00172989 c1=0.0109851 c0=0.00359782 enabled=True phases=3
New Line.IDLinea4_IDTramos_4 bus1=1364 bus2=829 length=9.729 units=m r1=0.000952086 r0=0.00109752 x1=0.00033682 x0=0.00172989 c1=0.0109851 c0=0.00359782 enabled=True phases=3
New Line.IDLinea5_IDTramos_5 bus1=831 bus2=3 length=64.12 units=m r1=0.000952086 r0=0.00109752 x1=0.00033682 x0=0.00172989 c1=0.0109851 c0=0.00359782 enabled=True phases=3
New Line.IDLinea6_IDTramos_6 bus1=835 bus2=4 length=31.756 units=m r1=0.000952086 r0=0.00109752 x1=0.00033682 x0=0.00172989 c1=0.0109851 c0=0.00359782 enabled=True phases=3
New Line.IDLinea7_IDTramos_7 bus1=837 bus2=836 length=621.297 units=m r1=0.00048417 r0=0.000629602 x1=0.000315326 x0=0.0017084 c1=0.0117887 c0=0.00367967 enabled=True phases=3
New Line.IDLinea8_IDTramos_8 bus1=825 bus2=820 length=47.359 units=m r1=0.000663124 r0=0.000808557 x1=0.000325502 x0=0.00171857 c1=0.0113939 c0=0.00364045 enabled=True phases=3
New Line.IDLinea16_IDTramos_9 bus1=5 bus2=839 length=244.205 units=m r1=0.00048417 r0=0.000629602 x1=0.000315326 x0=0.0017084 c1=0.0117887 c0=0.00367967 enabled=True phases=3
New Line.IDLinea17_IDTramos_10 bus1=5 bus2=840 length=20.714 units=m r1=0.00048417 r0=0.000629602 x1=0.000315326 x0=0.0017084 c1=0.0117887 c0=0.00367967 enabled=True phases=3
New Line.IDLinea18_IDTramos_11 bus1=1363 bus2=648 length=28.91 units=m r1=0.00048417 r0=0.000629602 x1=0.000315326 x0=0.0017084 c1=0.0117887 c0=0.00367967 enabled=True phases=3
New Line.IDLinea28_IDTramos_12 bus1=886 bus2=892 length=41.74 units=m r1=0.000952086 r0=0.00109752 x1=0.00033682 x0=0.00172989 c1=0.0109851 c0=0.00359782 enabled=True phases=3
New Line.IDLinea35_IDTramos_13 bus1=851 bus2=848 length=25.325 units=m r1=0.000952086 r0=0.00109752 x1=0.00033682 x0=0.00172989 c1=0.0109851 c0=0.00359782 enabled=True phases=3
New Line.IDLinea39_IDTramos_14 bus1=1294 bus2=6 length=14.565 units=m r1=0.000663124 r0=0.000808557 x1=0.000325502 x0=0.00171857 c1=0.0113939 c0=0.00364045 enabled=True phases=3
New Line.IDLinea39_IDTramos_15 bus1=6 bus2=229 length=14.521 units=m r1=0.000663124 r0=0.000808557 x1=0.000325502 x0=0.00171857 c1=0.0113939 c0=0.00364045 enabled=True phases=3
New Line.IDLinea41_IDTramos_16 bus1=1294 bus2=1742 length=484.806 units=m r1=0.000663124 r0=0.000808557 x1=0.000325502 x0=0.00171857 c1=0.0113939 c0=0.00364045 enabled=True phases=3
New Line.IDLinea42_IDTramos_17 bus1=732 bus2=727 length=21.831 units=m r1=0.000952086 r0=0.00109752 x1=0.00033682 x0=0.00172989 c1=0.0109851 c0=0.00359782 enabled=True phases=3
New Line.IDLinea54_IDTramos_18 bus1=757 bus2=758 length=17.451 units=m r1=0.00048417 r0=0.000629602 x1=0.000315326 x0=0.0017084 c1=0.0117887 c0=0.00367967 enabled=True phases=3
New Line.IDLinea55_IDTramos_19 bus1=744 bus2=755 length=113.01 units=m r1=0.000663124 r0=0.000808557 x1=0.000325502 x0=0.00171857 c1=0.0113939 c0=0.00364045 enabled=True phases=3
New Line.IDLinea38_IDTramos_20 bus1=7 bus2=8 length=1007.5 units=m r1=0.000663124 r0=0.000808557 x1=0.000325502 x0=0.00171857 c1=0.0113939 c0=0.00364045 enabled=True phases=3
New Line.IDLinea38_IDTramos_21 bus1=8 bus2=9 length=36.421 units=m r1=0.000663124 r0=0.000808557 x1=0.000325502 x0=0.00171857 c1=0.0113939 c0=0.00364045 enabled=True phases=3
New Line.IDLinea38_IDTramos_22 bus1=9 bus2=10 length=74.044 units=m r1=0.000663124 r0=0.000808557 x1=0.000325502 x0=0.00171857 c1=0.0113939 c0=0.00364045 enabled=True phases=3
New Line.IDLinea38_IDTramos_23 bus1=10 bus2=11 length=32.108 units=m r1=0.000663124 r0=0.000808557 x1=0.000325502 x0=0.00171857 c1=0.0113939 c0=0.00364045 enabled=True phases=3
New Line.IDLinea38_IDTramos_24 bus1=11 bus2=12 length=13.867 units=m r1=0.000663124 r0=0.000808557 x1=0.000325502 x0=0.00171857 c1=0.0113939 c0=0.00364045 enabled=True phases=3
New Line.IDLinea38_IDTramos_25 bus1=12 bus2=13 length=12.112 units=m r1=0.000663124 r0=0.000808557 x1=0.000325502 x0=0.00171857 c1=0.0113939 c0=0.00364045 enabled=True phases=3
New Line.IDLinea38_IDTramos_26 bus1=13 bus2=1293 length=152.085 units=m r1=0.000663124 r0=0.000808557 x1=0.000325502 x0=0.00171857 c1=0.0113939 c0=0.00364045 enabled=True phases=3
New Line.IDLinea40_IDTramos_27 bus1=749 bus2=753 length=98.152 units=m r1=0.00048417 r0=0.000629602 x1=0.000315326 x0=0.0017084 c1=0.0117887 c0=0.00367967 enabled=True phases=3
New Line.IDLinea56_IDTramos_28 bus1=1782 bus2=733 length=394.734 units=m r1=0.000663124 r0=0.000808557 x1=0.000325502 x0=0.00171857 c1=0.0113939 c0=0.00364045 enabled=True phases=3
New Line.IDLinea61_IDTramos_29 bus1=14 bus2=739 length=517.789 units=m r1=0.000952086 r0=0.00109752 x1=0.00033682 x0=0.00172989 c1=0.0109851 c0=0.00359782 enabled=True phases=3
New Line.IDLinea62_IDTramos_30 bus1=744 bus2=756 length=60.185 units=m r1=0.000663124 r0=0.000808557 x1=0.000325502 x0=0.00171857 c1=0.0113939 c0=0.00364045 enabled=True phases=3
New Line.IDLinea9_IDTramos_31 bus1=15 bus2=823 length=340.328 units=m r1=0.000663124 r0=0.000808557 x1=0.000325502 x0=0.00171857 c1=0.0113939 c0=0.00364045 enabled=True phases=3
New Line.IDLinea10_IDTramos_32 bus1=16 bus2=17 length=55.442 units=m r1=0.000952086 r0=0.00109752 x1=0.00033682 x0=0.00172989 c1=0.0109851 c0=0.00359782 enabled=True phases=3
New Line.IDLinea10_IDTramos_33 bus1=17 bus2=18 length=86.575 units=m r1=0.000952086 r0=0.00109752 x1=0.00033682 x0=0.00172989 c1=0.0109851 c0=0.00359782 enabled=True phases=3
New Line.IDLinea10_IDTramos_34 bus1=18 bus2=19 length=366.881 units=m r1=0.000952086 r0=0.00109752 x1=0.00033682 x0=0.00172989 c1=0.0109851 c0=0.00359782 enabled=True phases=3
New Line.IDLinea10_IDTramos_35 bus1=19 bus2=20 length=240.07 units=m r1=0.000952086 r0=0.00109752 x1=0.00033682 x0=0.00172989 c1=0.0109851 c0=0.00359782 enabled=True phases=3
New Line.IDLinea10_IDTramos_36 bus1=20 bus2=21 length=47.772 units=m r1=0.000952086 r0=0.00109752 x1=0.00033682 x0=0.00172989 c1=0.0109851 c0=0.00359782 enabled=True phases=3
New Line.IDLinea10_IDTramos_37 bus1=21 bus2=22 length=43.531 units=m r1=0.000952086 r0=0.00109752 x1=0.00033682 x0=0.00172989 c1=0.0109851 c0=0.00359782 enabled=True phases=3
New Line.IDLinea10_IDTramos_38 bus1=22 bus2=1749 length=26.95 units=m r1=0.000952086 r0=0.00109752 x1=0.00033682 x0=0.00172989 c1=0.0109851 c0=0.00359782 enabled=True phases=3
New Line.IDLinea11_IDTramos_39 bus1=654 bus2=653 length=528.272 units=m r1=0.000952086 r0=0.00109752 x1=0.00033682 x0=0.00172989 c1=0.0109851 c0=0.00359782 enabled=True phases=3
New Line.IDLinea12_IDTramos_40 bus1=1423 bus2=668 length=53.403 units=m r1=0.00048417 r0=0.000629602 x1=0.000315326 x0=0.0017084 c1=0.0117887 c0=0.00367967 enabled=True phases=3
New Line.IDLinea13_IDTramos_41 bus1=76 bus2=671 length=134.016 units=m r1=0.00048417 r0=0.000629602 x1=0.000315326 x0=0.0017084 c1=0.0117887 c0=0.00367967 enabled=True phases=3
New Line.IDLinea14_IDTramos_42 bus1=657 bus2=658 length=650.112 units=m r1=0.000952086 r0=0.00109752 x1=0.00033682 x0=0.00172989 c1=0.0109851 c0=0.00359782 enabled=True phases=3
New Line.IDLinea15_IDTramos_43 bus1=660 bus2=664 length=51.137 units=m r1=0.000952086 r0=0.00109752 x1=0.00033682 x0=0.00172989 c1=0.0109851 c0=0.00359782 enabled=True phases=3
New Line.IDLinea19_IDTramos_44 bus1=642 bus2=644 length=7.965 units=m r1=0.000952086 r0=0.00109752 x1=0.00033682 x0=0.00172989 c1=0.0109851 c0=0.00359782 enabled=True phases=3
New Line.IDLinea43_IDTramos_45 bus1=1673 bus2=693 length=111.277 units=m r1=0.000952086 r0=0.00109752 x1=0.00033682 x0=0.00172989 c1=0.0109851 c0=0.00359782 enabled=True phases=3
New Line.IDLinea99_IDTramos_46 bus1=289 bus2=292 length=48.256 units=m r1=0.000952086 r0=0.00109752 x1=0.00033682 x0=0.00172989 c1=0.0109851 c0=0.00359782 enabled=True phases=3
New Line.IDLinea20_IDTramos_47 bus1=646 bus2=23 length=296.972 units=m r1=0.00048417 r0=0.000629602 x1=0.000315326 x0=0.0017084 c1=0.0117887 c0=0.00367967 enabled=True phases=3
New Line.IDLinea65_IDTramos_48 bus1=24 bus2=25 length=359.608 units=m r1=0.00048417 r0=0.000629602 x1=0.000315326 x0=0.0017084 c1=0.0117887 c0=0.00367967 enabled=True phases=3
New Line.IDLinea65_IDTramos_49 bus1=25 bus2=26 length=87.421 units=m r1=0.00048417 r0=0.000629602 x1=0.000315326 x0=0.0017084 c1=0.0117887 c0=0.00367967 enabled=True phases=3
New Line.IDLinea66_IDTramos_50 bus1=89 bus2=26 length=272.813 units=m r1=0.00048417 r0=0.000629602 x1=0.000315326 x0=0.0017084 c1=0.0117887 c0=0.00367967 enabled=True phases=3
New Line.IDLinea96_IDTramos_51 bus1=304 bus2=302 length=6.43 units=m r1=0.00048417 r0=0.000629602 x1=0.000315326 x0=0.0017084 c1=0.0117887 c0=0.00367967 enabled=True phases=3
New Line.IDLinea22_IDTramos_52 bus1=871 bus2=1724 length=6.496 units=m r1=0.000952086 r0=0.00109752 x1=0.00033682 x0=0.00172989 c1=0.0109851 c0=0.00359782 enabled=True phases=3
New Line.IDLinea97_IDTramos_53 bus1=312 bus2=310 length=33.456 units=m r1=0.000952086 r0=0.00109752 x1=0.00033682 x0=0.00172989 c1=0.0109851 c0=0.00359782 enabled=True phases=3
New Line.IDLinea98_IDTramos_54 bus1=1378 bus2=317 length=31.231 units=m r1=0.00048417 r0=0.000629602 x1=0.000315326 x0=0.0017084 c1=0.0117887 c0=0.00367967 enabled=True phases=3
New Line.IDLinea100_IDTramos_55 bus1=289 bus2=1288 length=42.003 units=m r1=0.000952086 r0=0.00109752 x1=0.00033682 x0=0.00172989 c1=0.0109851 c0=0.00359782 enabled=True phases=3
New Line.IDLinea101_IDTramos_56 bus1=1272 bus2=276 length=14.317 units=m r1=0.000952086 r0=0.00109752 x1=0.00033682 x0=0.00172989 c1=0.0109851 c0=0.00359782 enabled=True phases=3
New Line.IDLinea102_IDTramos_57 bus1=272 bus2=27 length=301.571 units=m r1=0.000952086 r0=0.00109752 x1=0.00033682 x0=0.00172989 c1=0.0109851 c0=0.00359782 enabled=True phases=3
New Line.IDLinea103_IDTramos_58 bus1=28 bus2=29 length=236.552 units=m r1=0.000952086 r0=0.00109752 x1=0.00033682 x0=0.00172989 c1=0.0109851 c0=0.00359782 enabled=True phases=3
New Line.IDLinea104_IDTramos_59 bus1=29 bus2=30 length=528.526 units=m r1=0.000952086 r0=0.00109752 x1=0.00033682 x0=0.00172989 c1=0.0109851 c0=0.00359782 enabled=True phases=3
New Line.IDLinea105_IDTramos_60 bus1=1812 bus2=353 length=37.297 units=m r1=0.000952086 r0=0.00109752 x1=0.00033682 x0=0.00172989 c1=0.0109851 c0=0.00359782 enabled=True phases=3
New Line.IDLinea106_IDTramos_61 bus1=382 bus2=1274 length=29.74 units=m r1=0.000952086 r0=0.00109752 x1=0.00033682 x0=0.00172989 c1=0.0109851 c0=0.00359782 enabled=True phases=3
New Line.IDLinea107_IDTramos_62 bus1=113 bus2=382 length=70.505 units=m r1=0.000663124 r0=0.000808557 x1=0.000325502 x0=0.00171857 c1=0.0113939 c0=0.00364045 enabled=True phases=3
New Line.IDLinea108_IDTramos_63 bus1=383 bus2=380 length=512.092 units=m r1=0.00048417 r0=0.000629602 x1=0.000315326 x0=0.0017084 c1=0.0117887 c0=0.00367967 enabled=True phases=3
New Line.IDLinea23_IDTramos_64 bus1=876 bus2=878 length=5.212 units=m r1=0.000952086 r0=0.00109752 x1=0.00033682 x0=0.00172989 c1=0.0109851 c0=0.00359782 enabled=True phases=3
New Line.IDLinea44_IDTramos_65 bus1=707 bus2=688 length=24.318 units=m r1=0.000952086 r0=0.00109752 x1=0.00033682 x0=0.00172989 c1=0.0109851 c0=0.00359782 enabled=True phases=3
New Line.IDLinea45_IDTramos_66 bus1=1414 bus2=705 length=51.729 units=m r1=0.000663124 r0=0.000808557 x1=0.000325502 x0=0.00171857 c1=0.0113939 c0=0.00364045 enabled=True phases=3
New Line.IDLinea109_IDTramos_67 bus1=381 bus2=1686 length=40.945 units=m r1=0.00048417 r0=0.000629602 x1=0.000315326 x0=0.0017084 c1=0.0117887 c0=0.00367967 enabled=True phases=3
New Line.IDLinea110_IDTramos_68 bus1=379 bus2=377 length=24.85 units=m r1=0.000952086 r0=0.00109752 x1=0.00033682 x0=0.00172989 c1=0.0109851 c0=0.00359782 enabled=True phases=3
New Line.IDLinea46_IDTramos_69 bus1=1414 bus2=31 length=48.055 units=m r1=0.00048417 r0=0.000629602 x1=0.000315326 x0=0.0017084 c1=0.0117887 c0=0.00367967 enabled=True phases=3
New Line.IDLinea46_IDTramos_70 bus1=31 bus2=32 length=21.476 units=m r1=0.00048417 r0=0.000629602 x1=0.000315326 x0=0.0017084 c1=0.0117887 c0=0.00367967 enabled=True phases=3
New Line.IDLinea46_IDTramos_71 bus1=32 bus2=33 length=45.682 units=m r1=0.00048417 r0=0.000629602 x1=0.000315326 x0=0.0017084 c1=0.0117887 c0=0.00367967 enabled=True phases=3
New Line.IDLinea46_IDTramos_72 bus1=33 bus2=34 length=86.441 units=m r1=0.00048417 r0=0.000629602 x1=0.000315326 x0=0.0017084 c1=0.0117887 c0=0.00367967 enabled=True phases=3
New Line.IDLinea46_IDTramos_73 bus1=34 bus2=35 length=173.174 units=m r1=0.00048417 r0=0.000629602 x1=0.000315326 x0=0.0017084 c1=0.0117887 c0=0.00367967 enabled=True phases=3
New Line.IDLinea46_IDTramos_74 bus1=35 bus2=36 length=304.813 units=m r1=0.00048417 r0=0.000629602 x1=0.000315326 x0=0.0017084 c1=0.0117887 c0=0.00367967 enabled=True phases=3
New Line.IDLinea46_IDTramos_75 bus1=36 bus2=37 length=705.193 units=m r1=0.00048417 r0=0.000629602 x1=0.000315326 x0=0.0017084 c1=0.0117887 c0=0.00367967 enabled=True phases=3
New Line.IDLinea47_IDTramos_76 bus1=686 bus2=38 length=55.532 units=m r1=0.000952086 r0=0.00109752 x1=0.00033682 x0=0.00172989 c1=0.0109851 c0=0.00359782 enabled=True phases=3
New Line.IDLinea47_IDTramos_77 bus1=38 bus2=39 length=261.857 units=m r1=0.000952086 r0=0.00109752 x1=0.00033682 x0=0.00172989 c1=0.0109851 c0=0.00359782 enabled=True phases=3
New Line.IDLinea48_IDTramos_78 bus1=40 bus2=717 length=54.196 units=m r1=0.000663124 r0=0.000808557 x1=0.000325502 x0=0.00171857 c1=0.0113939 c0=0.00364045 enabled=True phases=3
New Line.IDLinea49_IDTramos_79 bus1=40 bus2=719 length=29.2 units=m r1=0.000952086 r0=0.00109752 x1=0.00033682 x0=0.00172989 c1=0.0109851 c0=0.00359782 enabled=True phases=3
New Line.IDLinea50_IDTramos_80 bus1=727 bus2=729 length=21.996 units=m r1=0.000663124 r0=0.000808557 x1=0.000325502 x0=0.00171857 c1=0.0113939 c0=0.00364045 enabled=True phases=3
New Line.IDLinea51_IDTramos_81 bus1=41 bus2=743 length=328.627 units=m r1=0.000952086 r0=0.00109752 x1=0.00033682 x0=0.00172989 c1=0.0109851 c0=0.00359782 enabled=True phases=3
New Line.IDLinea52_IDTramos_82 bus1=1731 bus2=42 length=362.378 units=m r1=0.000663124 r0=0.000808557 x1=0.000325502 x0=0.00171857 c1=0.0113939 c0=0.00364045 enabled=True phases=3
New Line.IDLinea53_IDTramos_83 bus1=1731 bus2=1719 length=57.043 units=m r1=0.000663124 r0=0.000808557 x1=0.000325502 x0=0.00171857 c1=0.0113939 c0=0.00364045 enabled=True phases=3
New Line.IDLinea111_IDTramos_84 bus1=376 bus2=371 length=59.324 units=m r1=0.000952086 r0=0.00109752 x1=0.00033682 x0=0.00172989 c1=0.0109851 c0=0.00359782 enabled=True phases=3
New Line.IDLinea112_IDTramos_85 bus1=369 bus2=1360 length=48.968 units=m r1=0.000952086 r0=0.00109752 x1=0.00033682 x0=0.00172989 c1=0.0109851 c0=0.00359782 enabled=True phases=3
New Line.IDLinea114_IDTramos_86 bus1=363 bus2=43 length=26.024 units=m r1=0.000952086 r0=0.00109752 x1=0.00033682 x0=0.00172989 c1=0.0109851 c0=0.00359782 enabled=True phases=3
New Line.IDLinea122_IDTramos_87 bus1=236 bus2=248 length=31.224 units=m r1=0.000952086 r0=0.00109752 x1=0.00033682 x0=0.00172989 c1=0.0109851 c0=0.00359782 enabled=True phases=3
New Line.IDLinea57_IDTramos_88 bus1=45 bus2=745 length=870.915 units=m r1=0.00131006 r0=0.0014555 x1=0.000346644 x0=0.00173971 c1=0.0106534 c0=0.00356164 enabled=True phases=3
New Line.IDLinea24_IDTramos_89 bus1=863 bus2=44 length=186.25 units=m r1=0.000663124 r0=0.000808557 x1=0.000325502 x0=0.00171857 c1=0.0113939 c0=0.00364045 enabled=True phases=3
New Line.IDLinea58_IDTramos_90 bus1=45 bus2=699 length=658.953 units=m r1=0.000663124 r0=0.000808557 x1=0.000325502 x0=0.00171857 c1=0.0113939 c0=0.00364045 enabled=True phases=3
New Line.IDLinea59_IDTramos_91 bus1=744 bus2=46 length=11.123 units=m r1=0.000663124 r0=0.000808557 x1=0.000325502 x0=0.00171857 c1=0.0113939 c0=0.00364045 enabled=True phases=3
New Line.IDLinea59_IDTramos_92 bus1=46 bus2=47 length=30.397 units=m r1=0.000663124 r0=0.000808557 x1=0.000325502 x0=0.00171857 c1=0.0113939 c0=0.00364045 enabled=True phases=3
New Line.IDLinea59_IDTramos_93 bus1=47 bus2=741 length=726.186 units=m r1=0.000663124 r0=0.000808557 x1=0.000325502 x0=0.00171857 c1=0.0113939 c0=0.00364045 enabled=True phases=3
New Line.IDLinea124_IDTramos_94 bus1=48 bus2=1734 length=152.651 units=m r1=0.000663124 r0=0.000808557 x1=0.000325502 x0=0.00171857 c1=0.0113939 c0=0.00364045 enabled=True phases=3
New Line.IDLinea125_IDTramos_95 bus1=1318 bus2=49 length=9.286 units=m r1=0.00048417 r0=0.000629602 x1=0.000315326 x0=0.0017084 c1=0.0117887 c0=0.00367967 enabled=True phases=3
New Line.IDLinea125_IDTramos_96 bus1=49 bus2=50 length=552.06 units=m r1=0.00048417 r0=0.000629602 x1=0.000315326 x0=0.0017084 c1=0.0117887 c0=0.00367967 enabled=True phases=3
New Line.IDLinea25_IDTramos_97 bus1=863 bus2=51 length=17.192 units=m r1=0.00048417 r0=0.000629602 x1=0.000315326 x0=0.0017084 c1=0.0117887 c0=0.00367967 enabled=True phases=3
New Line.IDLinea25_IDTramos_98 bus1=51 bus2=52 length=224.597 units=m r1=0.00048417 r0=0.000629602 x1=0.000315326 x0=0.0017084 c1=0.0117887 c0=0.00367967 enabled=True phases=3
New Line.IDLinea126_IDTramos_99 bus1=256 bus2=257 length=52.451 units=m r1=0.000663124 r0=0.000808557 x1=0.000325502 x0=0.00171857 c1=0.0113939 c0=0.00364045 enabled=True phases=3
New Line.IDLinea26_IDTramos_100 bus1=52 bus2=57 length=1032.359 units=m r1=0.000352234 r0=0.000497666 x1=0.000305055 x0=0.00169813 c1=0.0122161 c0=0.00372013 enabled=True phases=3
New Line.IDLinea60_IDTramos_101 bus1=1782 bus2=735 length=58.39 units=m r1=0.000663124 r0=0.000808557 x1=0.000325502 x0=0.00171857 c1=0.0113939 c0=0.00364045 enabled=True phases=3
New Line.IDLinea113_IDTramos_102 bus1=72 bus2=53 length=219.905 units=m r1=0.000952086 r0=0.00109752 x1=0.00033682 x0=0.00172989 c1=0.0109851 c0=0.00359782 enabled=True phases=3
New Line.IDLinea113_IDTramos_103 bus1=53 bus2=54 length=86.937 units=m r1=0.000952086 r0=0.00109752 x1=0.00033682 x0=0.00172989 c1=0.0109851 c0=0.00359782 enabled=True phases=3
New Line.IDLinea127_IDTramos_104 bus1=329 bus2=331 length=30.456 units=m r1=0.00131006 r0=0.0014555 x1=0.000346644 x0=0.00173971 c1=0.0106534 c0=0.00356164 enabled=True phases=3
New Line.IDLinea131_IDTramos_105 bus1=1706 bus2=256 length=28.505 units=m r1=0.000663124 r0=0.000808557 x1=0.000325502 x0=0.00171857 c1=0.0113939 c0=0.00364045 enabled=True phases=3
New Line.IDLinea132_IDTramos_106 bus1=1675 bus2=284 length=34.36 units=m r1=0.00048417 r0=0.000629602 x1=0.000315326 x0=0.0017084 c1=0.0117887 c0=0.00367967 enabled=True phases=3
New Line.IDLinea133_IDTramos_107 bus1=890 bus2=1340 length=99.141 units=m r1=0.00048417 r0=0.000629602 x1=0.000315326 x0=0.0017084 c1=0.0117887 c0=0.00367967 enabled=True phases=3
New Line.IDLinea134_IDTramos_108 bus1=271 bus2=55 length=746.199 units=m r1=0.000663124 r0=0.000808557 x1=0.000325502 x0=0.00171857 c1=0.0113939 c0=0.00364045 enabled=True phases=3
New Line.IDLinea135_IDTramos_109 bus1=55 bus2=56 length=583.211 units=m r1=0.000663124 r0=0.000808557 x1=0.000325502 x0=0.00171857 c1=0.0113939 c0=0.00364045 enabled=True phases=3
New Line.IDLinea135_IDTramos_110 bus1=56 bus2=272 length=10.415 units=m r1=0.000663124 r0=0.000808557 x1=0.000325502 x0=0.00171857 c1=0.0113939 c0=0.00364045 enabled=True phases=3
New Line.IDLinea136_IDTramos_111 bus1=1090 bus2=1539 length=36.42 units=m r1=0.000952086 r0=0.00109752 x1=0.00033682 x0=0.00172989 c1=0.0109851 c0=0.00359782 enabled=True phases=3
New Line.IDLinea137_IDTramos_112 bus1=964 bus2=1090 length=320.936 units=m r1=0.000663124 r0=0.000808557 x1=0.000325502 x0=0.00171857 c1=0.0113939 c0=0.00364045 enabled=True phases=3
New Line.IDLinea138_IDTramos_113 bus1=1812 bus2=351 length=35.069 units=m r1=0.000952086 r0=0.00109752 x1=0.00033682 x0=0.00172989 c1=0.0109851 c0=0.00359782 enabled=True phases=3
New Line.IDLinea27_IDTramos_114 bus1=57 bus2=840 length=26.917 units=m r1=0.00048417 r0=0.000629602 x1=0.000315326 x0=0.0017084 c1=0.0117887 c0=0.00367967 enabled=True phases=3
New Line.IDLinea139_IDTramos_115 bus1=1346 bus2=349 length=31.668 units=m r1=0.000952086 r0=0.00109752 x1=0.00033682 x0=0.00172989 c1=0.0109851 c0=0.00359782 enabled=True phases=3
New Line.IDLinea140_IDTramos_116 bus1=347 bus2=345 length=31.84 units=m r1=0.000952086 r0=0.00109752 x1=0.00033682 x0=0.00172989 c1=0.0109851 c0=0.00359782 enabled=True phases=3
New Line.IDLinea141_IDTramos_117 bus1=344 bus2=1494 length=16.178 units=m r1=0.000952086 r0=0.00109752 x1=0.00033682 x0=0.00172989 c1=0.0109851 c0=0.00359782 enabled=True phases=3
New Line.IDLinea142_IDTramos_118 bus1=230 bus2=58 length=1.069 units=m r1=0.000352234 r0=0.000497666 x1=0.000305055 x0=0.00169813 c1=0.0122161 c0=0.00372013 enabled=True phases=3
New Line.IDLinea142_IDTramos_119 bus1=58 bus2=1372 length=37.235 units=m r1=0.000352234 r0=0.000497666 x1=0.000305055 x0=0.00169813 c1=0.0122161 c0=0.00372013 enabled=True phases=3
New Line.IDLinea143_IDTramos_120 bus1=28 bus2=1504 length=17.925 units=m r1=0.00048417 r0=0.000629602 x1=0.000315326 x0=0.0017084 c1=0.0117887 c0=0.00367967 enabled=True phases=3
New Line.IDLinea144_IDTramos_121 bus1=87 bus2=1504 length=30.922 units=m r1=0.00048417 r0=0.000629602 x1=0.000315326 x0=0.0017084 c1=0.0117887 c0=0.00367967 enabled=True phases=3
New Line.IDLinea145_IDTramos_122 bus1=955 bus2=1305 length=40.575 units=m r1=0.000952086 r0=0.00109752 x1=0.00033682 x0=0.00172989 c1=0.0109851 c0=0.00359782 enabled=True phases=3
New Line.IDLinea146_IDTramos_123 bus1=955 bus2=59 length=12.926 units=m r1=0.000952086 r0=0.00109752 x1=0.00033682 x0=0.00172989 c1=0.0109851 c0=0.00359782 enabled=True phases=3
New Line.IDLinea146_IDTramos_124 bus1=59 bus2=60 length=41.476 units=m r1=0.000952086 r0=0.00109752 x1=0.00033682 x0=0.00172989 c1=0.0109851 c0=0.00359782 enabled=True phases=3
New Line.IDLinea147_IDTramos_125 bus1=61 bus2=1369 length=10.615 units=m r1=0.000352234 r0=0.000497666 x1=0.000305055 x0=0.00169813 c1=0.0122161 c0=0.00372013 enabled=True phases=3
New Line.IDLinea148_IDTramos_126 bus1=953 bus2=956 length=38.666 units=m r1=0.000952086 r0=0.00109752 x1=0.00033682 x0=0.00172989 c1=0.0109851 c0=0.00359782 enabled=True phases=3
New Line.IDLinea149_IDTramos_127 bus1=967 bus2=62 length=28.564 units=m r1=0.000952086 r0=0.00109752 x1=0.00033682 x0=0.00172989 c1=0.0109851 c0=0.00359782 enabled=True phases=3
New Line.IDLinea150_IDTramos_128 bus1=970 bus2=1531 length=67.164 units=m r1=0.000952086 r0=0.00109752 x1=0.00033682 x0=0.00172989 c1=0.0109851 c0=0.00359782 enabled=True phases=3
New Line.IDLinea151_IDTramos_129 bus1=1533 bus2=973 length=8.713 units=m r1=0.000952086 r0=0.00109752 x1=0.00033682 x0=0.00172989 c1=0.0109851 c0=0.00359782 enabled=True phases=3
New Line.IDLinea152_IDTramos_130 bus1=1533 bus2=74 length=11.284 units=m r1=0.000952086 r0=0.00109752 x1=0.00033682 x0=0.00172989 c1=0.0109851 c0=0.00359782 enabled=True phases=3
New Line.IDLinea153_IDTramos_131 bus1=1481 bus2=975 length=15.281 units=m r1=0.000952086 r0=0.00109752 x1=0.00033682 x0=0.00172989 c1=0.0109851 c0=0.00359782 enabled=True phases=3
New Line.IDLinea154_IDTramos_132 bus1=895 bus2=1498 length=5.281 units=m r1=0.000275299 r0=0.000420731 x1=0.000297103 x0=0.00169017 c1=0.0125692 c0=0.00375209 enabled=True phases=3
New Line.IDLinea155_IDTramos_133 bus1=955 bus2=957 length=185.044 units=m r1=0.000275299 r0=0.000420731 x1=0.000297103 x0=0.00169017 c1=0.0125692 c0=0.00375209 enabled=True phases=3
New Line.IDLinea158_IDTramos_134 bus1=1640 bus2=63 length=112.788 units=m r1=0.00048417 r0=0.000629602 x1=0.000315326 x0=0.0017084 c1=0.0117887 c0=0.00367967 enabled=True phases=3
New Line.IDLinea159_IDTramos_135 bus1=978 bus2=980 length=35.059 units=m r1=0.00048417 r0=0.000629602 x1=0.000315326 x0=0.0017084 c1=0.0117887 c0=0.00367967 enabled=True phases=3
New Line.IDLinea173_IDTramos_136 bus1=94 bus2=981 length=79.298 units=m r1=0.000952086 r0=0.00109752 x1=0.00033682 x0=0.00172989 c1=0.0109851 c0=0.00359782 enabled=True phases=3
New Line.IDLinea174_IDTramos_137 bus1=64 bus2=985 length=60.317 units=m r1=0.000952086 r0=0.00109752 x1=0.00033682 x0=0.00172989 c1=0.0109851 c0=0.00359782 enabled=True phases=3
New Line.IDLinea175_IDTramos_138 bus1=984 bus2=985 length=35.543 units=m r1=0.000952086 r0=0.00109752 x1=0.00033682 x0=0.00172989 c1=0.0109851 c0=0.00359782 enabled=True phases=3
New Line.IDLinea184_IDTramos_139 bus1=923 bus2=928 length=16.275 units=m r1=0.000952086 r0=0.00109752 x1=0.00033682 x0=0.00172989 c1=0.0109851 c0=0.00359782 enabled=True phases=3
New Line.IDLinea185_IDTramos_140 bus1=275 bus2=939 length=196.542 units=m r1=0.000663124 r0=0.000808557 x1=0.000325502 x0=0.00171857 c1=0.0113939 c0=0.00364045 enabled=True phases=3
New Line.IDLinea186_IDTramos_141 bus1=934 bus2=936 length=28.644 units=m r1=0.000952086 r0=0.00109752 x1=0.00033682 x0=0.00172989 c1=0.0109851 c0=0.00359782 enabled=True phases=3
New Line.IDLinea187_IDTramos_142 bus1=937 bus2=65 length=17.695 units=m r1=0.000952086 r0=0.00109752 x1=0.00033682 x0=0.00172989 c1=0.0109851 c0=0.00359782 enabled=True phases=3
New Line.IDLinea188_IDTramos_143 bus1=900 bus2=917 length=4.909 units=m r1=0.000952086 r0=0.00109752 x1=0.00033682 x0=0.00172989 c1=0.0109851 c0=0.00359782 enabled=True phases=3
New Line.IDLinea189_IDTramos_144 bus1=901 bus2=902 length=15.029 units=m r1=0.000952086 r0=0.00109752 x1=0.00033682 x0=0.00172989 c1=0.0109851 c0=0.00359782 enabled=True phases=3
New Line.IDLinea190_IDTramos_145 bus1=1413 bus2=66 length=2.431 units=m r1=0.000952086 r0=0.00109752 x1=0.00033682 x0=0.00172989 c1=0.0109851 c0=0.00359782 enabled=True phases=3
New Line.IDLinea190_IDTramos_146 bus1=66 bus2=910 length=12.015 units=m r1=0.000952086 r0=0.00109752 x1=0.00033682 x0=0.00172989 c1=0.0109851 c0=0.00359782 enabled=True phases=3
New Line.IDLinea191_IDTramos_147 bus1=912 bus2=914 length=18.212 units=m r1=0.000952086 r0=0.00109752 x1=0.00033682 x0=0.00172989 c1=0.0109851 c0=0.00359782 enabled=True phases=3
New Line.IDLinea195_IDTramos_148 bus1=67 bus2=1367 length=10.434 units=m r1=0.000352234 r0=0.000497666 x1=0.000305055 x0=0.00169813 c1=0.0122161 c0=0.00372013 enabled=True phases=3
New Line.IDLinea196_IDTramos_149 bus1=1368 bus2=1501 length=36.422 units=m r1=0.00048417 r0=0.000629602 x1=0.000315326 x0=0.0017084 c1=0.0117887 c0=0.00367967 enabled=True phases=3
New Line.IDLinea196_IDTramos_150 bus1=1501 bus2=227 length=15.693 units=m r1=0.00048417 r0=0.000629602 x1=0.000315326 x0=0.0017084 c1=0.0117887 c0=0.00367967 enabled=True phases=3
New Line.IDLinea197_IDTramos_151 bus1=228 bus2=68 length=513.851 units=m r1=0.000352234 r0=0.000497666 x1=0.000305055 x0=0.00169813 c1=0.0122161 c0=0.00372013 enabled=True phases=3
New Line.IDLinea197_IDTramos_152 bus1=68 bus2=69 length=21.387 units=m r1=0.000352234 r0=0.000497666 x1=0.000305055 x0=0.00169813 c1=0.0122161 c0=0.00372013 enabled=True phases=3
New Line.IDLinea197_IDTramos_153 bus1=69 bus2=1011 length=0.472 units=m r1=0.000352234 r0=0.000497666 x1=0.000305055 x0=0.00169813 c1=0.0122161 c0=0.00372013 enabled=True phases=3
New Line.IDLinea198_IDTramos_154 bus1=1011 bus2=1012 length=6.68 units=m r1=0.000952086 r0=0.00109752 x1=0.00033682 x0=0.00172989 c1=0.0109851 c0=0.00359782 enabled=True phases=3
New Line.IDLinea199_IDTramos_155 bus1=1014 bus2=1016 length=5.956 units=m r1=0.000952086 r0=0.00109752 x1=0.00033682 x0=0.00172989 c1=0.0109851 c0=0.00359782 enabled=True phases=3
New Line.IDLinea200_IDTramos_156 bus1=70 bus2=1021 length=13.143 units=m r1=0.000952086 r0=0.00109752 x1=0.00033682 x0=0.00172989 c1=0.0109851 c0=0.00359782 enabled=True phases=3
New Line.IDLinea201_IDTramos_157 bus1=1015 bus2=1024 length=35.278 units=m r1=0.000952086 r0=0.00109752 x1=0.00033682 x0=0.00172989 c1=0.0109851 c0=0.00359782 enabled=True phases=3
New Line.IDLinea202_IDTramos_158 bus1=1485 bus2=1027 length=5.496 units=m r1=0.000952086 r0=0.00109752 x1=0.00033682 x0=0.00172989 c1=0.0109851 c0=0.00359782 enabled=True phases=3
New Line.IDLinea29_IDTramos_159 bus1=71 bus2=891 length=610.019 units=m r1=0.00048417 r0=0.000629602 x1=0.000315326 x0=0.0017084 c1=0.0117887 c0=0.00367967 enabled=True phases=3
New Line.IDLinea30_IDTramos_160 bus1=1653 bus2=857 length=12.589 units=m r1=0.000663124 r0=0.000808557 x1=0.000325502 x0=0.00171857 c1=0.0113939 c0=0.00364045 enabled=True phases=3
New Line.IDLinea31_IDTramos_161 bus1=825 bus2=858 length=12.715 units=m r1=0.00048417 r0=0.000629602 x1=0.000315326 x0=0.0017084 c1=0.0117887 c0=0.00367967 enabled=True phases=3
New Line.IDLinea115_IDTramos_162 bus1=72 bus2=362 length=34.448 units=m r1=0.000952086 r0=0.00109752 x1=0.00033682 x0=0.00172989 c1=0.0109851 c0=0.00359782 enabled=True phases=3
New Line.IDLinea160_IDTramos_163 bus1=983 bus2=73 length=222.605 units=m r1=0.000952086 r0=0.00109752 x1=0.00033682 x0=0.00172989 c1=0.0109851 c0=0.00359782 enabled=True phases=3
New Line.IDLinea160_IDTramos_164 bus1=73 bus2=997 length=16.407 units=m r1=0.000952086 r0=0.00109752 x1=0.00033682 x0=0.00172989 c1=0.0109851 c0=0.00359782 enabled=True phases=3
New Line.IDLinea203_IDTramos_165 bus1=74 bus2=75 length=173.952 units=m r1=0.000352234 r0=0.000497666 x1=0.000305055 x0=0.00169813 c1=0.0122161 c0=0.00372013 enabled=True phases=3
New Line.IDLinea203_IDTramos_166 bus1=75 bus2=1315 length=44.068 units=m r1=0.000352234 r0=0.000497666 x1=0.000305055 x0=0.00169813 c1=0.0122161 c0=0.00372013 enabled=True phases=3
New Line.IDLinea116_IDTramos_167 bus1=381 bus2=368 length=35.915 units=m r1=0.000952086 r0=0.00109752 x1=0.00033682 x0=0.00172989 c1=0.0109851 c0=0.00359782 enabled=True phases=3
New Line.IDLinea117_IDTramos_168 bus1=278 bus2=280 length=31.854 units=m r1=0.000952086 r0=0.00109752 x1=0.00033682 x0=0.00172989 c1=0.0109851 c0=0.00359782 enabled=True phases=3
New Line.IDLinea33_IDTramos_169 bus1=76 bus2=812 length=24.266 units=m r1=0.000352234 r0=0.000497666 x1=0.000305055 x0=0.00169813 c1=0.0122161 c0=0.00372013 enabled=True phases=3
New Line.IDLinea118_IDTramos_170 bus1=283 bus2=298 length=13.233 units=m r1=0.000952086 r0=0.00109752 x1=0.00033682 x0=0.00172989 c1=0.0109851 c0=0.00359782 enabled=True phases=3
New Line.IDLinea162_IDTramos_171 bus1=1005 bus2=1342 length=362.756 units=m r1=0.000952086 r0=0.00109752 x1=0.00033682 x0=0.00172989 c1=0.0109851 c0=0.00359782 enabled=True phases=3
New Line.IDLinea163_IDTramos_172 bus1=1004 bus2=1006 length=22.841 units=m r1=0.000952086 r0=0.00109752 x1=0.00033682 x0=0.00172989 c1=0.0109851 c0=0.00359782 enabled=True phases=3
New Line.IDLinea164_IDTramos_173 bus1=1000 bus2=1001 length=22.366 units=m r1=0.000952086 r0=0.00109752 x1=0.00033682 x0=0.00172989 c1=0.0109851 c0=0.00359782 enabled=True phases=3
New Line.IDLinea63_IDTramos_174 bus1=77 bus2=764 length=25.915 units=m r1=0.000952086 r0=0.00109752 x1=0.00033682 x0=0.00172989 c1=0.0109851 c0=0.00359782 enabled=True phases=3
New Line.IDLinea119_IDTramos_175 bus1=321 bus2=1376 length=535.72 units=m r1=0.00048417 r0=0.000629602 x1=0.000315326 x0=0.0017084 c1=0.0117887 c0=0.00367967 enabled=True phases=3
New Line.IDLinea64_IDTramos_176 bus1=77 bus2=78 length=44.585 units=m r1=0.00131006 r0=0.0014555 x1=0.000346644 x0=0.00173971 c1=0.0106534 c0=0.00356164 enabled=True phases=3
New Line.IDLinea64_IDTramos_177 bus1=78 bus2=79 length=22.112 units=m r1=0.00131006 r0=0.0014555 x1=0.000346644 x0=0.00173971 c1=0.0106534 c0=0.00356164 enabled=True phases=3
New Line.IDLinea64_IDTramos_178 bus1=79 bus2=80 length=50.349 units=m r1=0.00131006 r0=0.0014555 x1=0.000346644 x0=0.00173971 c1=0.0106534 c0=0.00356164 enabled=True phases=3
New Line.IDLinea64_IDTramos_179 bus1=80 bus2=81 length=37.982 units=m r1=0.00131006 r0=0.0014555 x1=0.000346644 x0=0.00173971 c1=0.0106534 c0=0.00356164 enabled=True phases=3
New Line.IDLinea64_IDTramos_180 bus1=81 bus2=82 length=21.405 units=m r1=0.00131006 r0=0.0014555 x1=0.000346644 x0=0.00173971 c1=0.0106534 c0=0.00356164 enabled=True phases=3
New Line.IDLinea64_IDTramos_181 bus1=82 bus2=83 length=101.508 units=m r1=0.00131006 r0=0.0014555 x1=0.000346644 x0=0.00173971 c1=0.0106534 c0=0.00356164 enabled=True phases=3
New Line.IDLinea64_IDTramos_182 bus1=83 bus2=84 length=173.784 units=m r1=0.00131006 r0=0.0014555 x1=0.000346644 x0=0.00173971 c1=0.0106534 c0=0.00356164 enabled=True phases=3
New Line.IDLinea64_IDTramos_183 bus1=84 bus2=85 length=13.176 units=m r1=0.00131006 r0=0.0014555 x1=0.000346644 x0=0.00173971 c1=0.0106534 c0=0.00356164 enabled=True phases=3
New Line.IDLinea64_IDTramos_184 bus1=85 bus2=86 length=604.206 units=m r1=0.00131006 r0=0.0014555 x1=0.000346644 x0=0.00173971 c1=0.0106534 c0=0.00356164 enabled=True phases=3
New Line.IDLinea64_IDTramos_185 bus1=86 bus2=762 length=7.503 units=m r1=0.00131006 r0=0.0014555 x1=0.000346644 x0=0.00173971 c1=0.0106534 c0=0.00356164 enabled=True phases=3
New Line.IDLinea34_IDTramos_186 bus1=671 bus2=673 length=39.727 units=m r1=0.000952086 r0=0.00109752 x1=0.00033682 x0=0.00172989 c1=0.0109851 c0=0.00359782 enabled=True phases=3
New Line.IDLinea36_IDTramos_187 bus1=842 bus2=844 length=8.613 units=m r1=0.000952086 r0=0.00109752 x1=0.00033682 x0=0.00172989 c1=0.0109851 c0=0.00359782 enabled=True phases=3
New Line.IDLinea37_IDTramos_188 bus1=87 bus2=862 length=101.887 units=m r1=0.00048417 r0=0.000629602 x1=0.000315326 x0=0.0017084 c1=0.0117887 c0=0.00367967 enabled=True phases=3
New Line.IDLinea67_IDTramos_189 bus1=1694 bus2=88 length=15.952 units=m r1=0.000663124 r0=0.000808557 x1=0.000325502 x0=0.00171857 c1=0.0113939 c0=0.00364045 enabled=True phases=3
New Line.IDLinea67_IDTramos_190 bus1=88 bus2=89 length=698.566 units=m r1=0.000663124 r0=0.000808557 x1=0.000325502 x0=0.00171857 c1=0.0113939 c0=0.00364045 enabled=True phases=3
New Line.IDLinea68_IDTramos_191 bus1=783 bus2=780 length=14.546 units=m r1=0.00048417 r0=0.000629602 x1=0.000315326 x0=0.0017084 c1=0.0117887 c0=0.00367967 enabled=True phases=3
New Line.IDLinea69_IDTramos_192 bus1=784 bus2=788 length=28.83 units=m r1=0.000952086 r0=0.00109752 x1=0.00033682 x0=0.00172989 c1=0.0109851 c0=0.00359782 enabled=True phases=3
New Line.IDLinea70_IDTramos_193 bus1=90 bus2=795 length=124.425 units=m r1=0.000663124 r0=0.000808557 x1=0.000325502 x0=0.00171857 c1=0.0113939 c0=0.00364045 enabled=True phases=3
New Line.IDLinea71_IDTramos_194 bus1=797 bus2=1443 length=21.779 units=m r1=0.000663124 r0=0.000808557 x1=0.000325502 x0=0.00171857 c1=0.0113939 c0=0.00364045 enabled=True phases=3
New Line.IDLinea72_IDTramos_195 bus1=812 bus2=815 length=58.383 units=m r1=0.00048417 r0=0.000629602 x1=0.000315326 x0=0.0017084 c1=0.0117887 c0=0.00367967 enabled=True phases=3
New Line.IDLinea74_IDTramos_196 bus1=1350 bus2=818 length=550.419 units=m r1=0.00048417 r0=0.000629602 x1=0.000315326 x0=0.0017084 c1=0.0117887 c0=0.00367967 enabled=True phases=3
New Line.IDLinea75_IDTramos_197 bus1=1350 bus2=90 length=169.125 units=m r1=0.00131006 r0=0.0014555 x1=0.000346644 x0=0.00173971 c1=0.0106534 c0=0.00356164 enabled=True phases=3
New Line.IDLinea76_IDTramos_198 bus1=798 bus2=1496 length=23.617 units=m r1=0.000952086 r0=0.00109752 x1=0.00033682 x0=0.00172989 c1=0.0109851 c0=0.00359782 enabled=True phases=3
New Line.IDLinea77_IDTramos_199 bus1=91 bus2=683 length=87.676 units=m r1=0.000952086 r0=0.00109752 x1=0.00033682 x0=0.00172989 c1=0.0109851 c0=0.00359782 enabled=True phases=3
New Line.IDLinea165_IDTramos_200 bus1=1520 bus2=995 length=15.737 units=m r1=0.00209004 r0=0.00223547 x1=0.000361884 x0=0.00175495 c1=0.0101771 c0=0.00350694 enabled=True phases=3
...
