dss/import/decsa/Transformadores.txt
New Transformer.IDSeta_2 phases=3 wdg=1 bus=263.1.2.3 kv=13.2 kVA=16 wdg=2 bus=X_2.1.2.3 kv=0.38  kVA=16 %imag=0.5 %loadloss=1.5 %noloadloss=.25 XHL=2 conns=[delta, wye] ppm_antifloat=0
New Transformer.IDSeta_10 phases=3 wdg=1 bus=907.1.2.3 kv=13.2 kVA=200 wdg=2 bus=X_10.1.2.3 kv=0.38  kVA=200 %imag=0.5 %loadloss=1.5 %noloadloss=.25 XHL=2 conns=[delta, wye] ppm_antifloat=0
New Transformer.IDSeta_79 phases=3 wdg=1 bus=904.1.2.3 kv=13.2 kVA=125 wdg=2 bus=X_79.1.2.3 kv=0.38  kVA=125 %imag=0.5 %loadloss=1.5 %noloadloss=.25 XHL=2 conns=[delta, wye] ppm_antifloat=0
New Transformer.IDSeta_80 phases=3 wdg=1 bus=946.1.2.3 kv=13.2 kVA=200 wdg=2 bus=X_80.1.2.3 kv=0.38  kVA=200 %imag=0.5 %loadloss=1.5 %noloadloss=.25 XHL=2 conns=[delta, wye] ppm_antifloat=0
New Transformer.IDSeta_84 phases=3 wdg=1 bus=926.1.2.3 kv=13.2 kVA=100 wdg=2 bus=X_84.1.2.3 kv=0.38  kVA=100 %imag=0.5 %loadloss=1.5 %noloadloss=.25 XHL=2 conns=[delta, wye] ppm_antifloat=0
New Transformer.IDSeta_85 phases=3 wdg=1 bus=1808.1.2.3 kv=13.2 kVA=250 wdg=2 bus=X_85.1.2.3 kv=0.38  kVA=250 %imag=0.5 %loadloss=1.5 %noloadloss=.25 XHL=2 conns=[delta, wye] ppm_antifloat=0
New Transformer.IDSeta_86 phases=3 wdg=1 bus=969.1.2.3 kv=13.2 kVA=160 wdg=2 bus=X_86.1.2.3 kv=0.38  kVA=160 %imag=0.5 %loadloss=1.5 %noloadloss=.25 XHL=2 conns=[delta, wye] ppm_antifloat=0
New Transformer.IDSeta_87 phases=3 wdg=1 bus=1636.1.2.3 kv=13.2 kVA=160 wdg=2 bus=X_87.1.2.3 kv=0.38  kVA=160 %imag=0.5 %loadloss=1.5 %noloadloss=.25 XHL=2 conns=[delta, wye] ppm_antifloat=0
New Transformer.IDSeta_200 phases=3 wdg=1 bus=972.1.2.3 kv=13.2 kVA=200 wdg=2 bus=X_200.1.2.3 kv=0.38  kVA=200 %imag=0.5 %loadloss=1.5 %noloadloss=.25 XHL=2 conns=[delta, wye] ppm_antifloat=0
New Transformer.IDSeta_278 phases=3 wdg=1 bus=1416.1.2.3 kv=13.2 kVA=63 wdg=2 bus=X_278.1.2.3 kv=0.38  kVA=63 %imag=0.5 %loadloss=1.5 %noloadloss=.25 XHL=2 conns=[delta, wye] ppm_antifloat=0
New Transformer.IDSeta_337 phases=3 wdg=1 bus=360.1.2.3 kv=13.2 kVA=100 wdg=2 bus=X_337.1.2.3 kv=0.38  kVA=100 %imag=0.5 %loadloss=1.5 %noloadloss=.25 XHL=2 conns=[delta, wye] ppm_antifloat=0
New Transformer.IDSeta_531 phases=3 wdg=1 bus=1687 kv=13.2 kVA=5 wdg=2 bus=X_531.1.2.3 kv=0.38 kVA=5 %imag=0.5 %loadloss=1.5 %noloadloss=.25 XHL=2 conns=[delta, wye] ppm_antifloat=0
New Transformer.IDSeta_540 phases=3 wdg=1 bus=26.1.2.3 kv=13.2 kVA=10 wdg=2 bus=X_540.1.2.3 kv=0.38  kVA=10 %imag=0.5 %loadloss=1.5 %noloadloss=.25 XHL=2 conns=[delta, wye] ppm_antifloat=0
New Transformer.IDSeta_541 phases=3 wdg=1 bus=24.1.2.3 kv=13.2 kVA=25 wdg=2 bus=X_541.1.2.3 kv=0.38  kVA=25 %imag=0.5 %loadloss=1.5 %noloadloss=.25 XHL=2 conns=[delta, wye] ppm_antifloat=0
New Transformer.IDSeta_551 phases=3 wdg=1 bus=641.1.2.3 kv=13.2 kVA=25 wdg=2 bus=X_551.1.2.3 kv=0.38  kVA=25 %imag=0.5 %loadloss=1.5 %noloadloss=.25 XHL=2 conns=[delta, wye] ppm_antifloat=0
New Transformer.IDSeta_594 phases=3 wdg=1 bus=7.1.2.3 kv=13.2 kVA=200 wdg=2 bus=X_594.1.2.3 kv=0.38  kVA=200 %imag=0.5 %loadloss=1.5 %noloadloss=.25 XHL=2 conns=[delta, wye] ppm_antifloat=0
New Transformer.IDSeta_637 phases=3 wdg=1 bus=736.1.2.3 kv=13.2 kVA=80 wdg=2 bus=X_637.1.2.3 kv=0.38  kVA=80 %imag=0.5 %loadloss=1.5 %noloadloss=.25 XHL=2 conns=[delta, wye] ppm_antifloat=0
New Transformer.IDSeta_644 phases=3 wdg=1 bus=297.1.2.3 kv=13.2 kVA=75 wdg=2 bus=X_644.1.2.3 kv=0.38  kVA=75 %imag=0.5 %loadloss=1.5 %noloadloss=.25 XHL=2 conns=[delta, wye] ppm_antifloat=0
New Transformer.IDSeta_656 phases=3 wdg=1 bus=1716.1.2.3 kv=13.2 kVA=80 wdg=2 bus=X_656.1.2.3 kv=0.38  kVA=80 %imag=0.5 %loadloss=1.5 %noloadloss=.25 XHL=2 conns=[delta, wye] ppm_antifloat=0
New Transformer.IDSeta_659 phases=3 wdg=1 bus=776.1.2.3 kv=13.2 kVA=16 wdg=2 bus=X_659.1.2.3 kv=0.38  kVA=16 %imag=0.5 %loadloss=1.5 %noloadloss=.25 XHL=2 conns=[delta, wye] ppm_antifloat=0
New Transformer.IDSeta_781 phases=3 wdg=1 bus=737.1.2.3 kv=13.2 kVA=80 wdg=2 bus=X_781.1.2.3 kv=0.38  kVA=80 %imag=0.5 %loadloss=1.5 %noloadloss=.25 XHL=2 conns=[delta, wye] ppm_antifloat=0
New Transformer.IDSeta_784 phases=3 wdg=1 bus=383.1.2.3 kv=13.2 kVA=160 wdg=2 bus=X_784.1.2.3 kv=0.38  kVA=160 %imag=0.5 %loadloss=1.5 %noloadloss=.25 XHL=2 conns=[delta, wye] ppm_antifloat=0
New Transformer.IDSeta_805 phases=3 wdg=1 bus=730.1.2.3 kv=13.2 kVA=40 wdg=2 bus=X_805.1.2.3 kv=0.38  kVA=40 %imag=0.5 %loadloss=1.5 %noloadloss=.25 XHL=2 conns=[delta, wye] ppm_antifloat=0
New Transformer.IDSeta_821 phases=3 wdg=1 bus=379.1.2.3 kv=13.2 kVA=40 wdg=2 bus=X_821.1.2.3 kv=0.38  kVA=40 %imag=0.5 %loadloss=1.5 %noloadloss=.25 XHL=2 conns=[delta, wye] ppm_antifloat=0
New Transformer.IDSeta_828 phases=3 wdg=1 bus=1438.1.2.3 kv=13.2 kVA=80 wdg=2 bus=X_828.1.2.3 kv=0.38  kVA=80 %imag=0.5 %loadloss=1.5 %noloadloss=.25 XHL=2 conns=[delta, wye] ppm_antifloat=0
New Transformer.IDSeta_14 phases=3 wdg=1 bus=945.1.2.3 kv=13.2 kVA=315 wdg=2 bus=X_14.1.2.3 kv=0.38  kVA=315 %imag=0.5 %loadloss=1.5 %noloadloss=.25 XHL=2 conns=[delta, wye] ppm_antifloat=0
New Transformer.IDSeta_15 phases=3 wdg=1 bus=949.1.2.3 kv=13.2 kVA=315 wdg=2 bus=X_15.1.2.3 kv=0.38  kVA=315 %imag=0.5 %loadloss=1.5 %noloadloss=.25 XHL=2 conns=[delta, wye] ppm_antifloat=0
New Transformer.IDSeta_17 phases=3 wdg=1 bus=1813.1.2.3 kv=13.2 kVA=400 wdg=2 bus=X_17.1.2.3 kv=0.38  kVA=400 %imag=0.5 %loadloss=1.5 %noloadloss=.25 XHL=2 conns=[delta, wye] ppm_antifloat=0
New Transformer.IDSeta_20 phases=3 wdg=1 bus=102.1.2.3 kv=13.2 kVA=80 wdg=2 bus=X_20.1.2.3 kv=0.38  kVA=80 %imag=0.5 %loadloss=1.5 %noloadloss=.25 XHL=2 conns=[delta, wye] ppm_antifloat=0
New Transformer.IDSeta_50 phases=3 wdg=1 bus=992.1.2.3 kv=13.2 kVA=400 wdg=2 bus=X_50.1.2.3 kv=0.38  kVA=400 %imag=0.5 %loadloss=1.5 %noloadloss=.25 XHL=2 conns=[delta, wye] ppm_antifloat=0
New Transformer.IDSeta_51 phases=3 wdg=1 bus=993.1.2.3 kv=13.2 kVA=315 wdg=2 bus=X_51.1.2.3 kv=0.38  kVA=315 %imag=0.5 %loadloss=1.5 %noloadloss=.25 XHL=2 conns=[delta, wye] ppm_antifloat=0
New Transformer.IDSeta_1243 phases=3 wdg=1 bus=1741.1.2.3 kv=13.2 kVA=25 wdg=2 bus=X_1243.1.2.3 kv=0.38  kVA=25 %imag=0.5 %loadloss=1.5 %noloadloss=.25 XHL=2 conns=[delta, wye] ppm_antifloat=0
New Transformer.IDSeta_1244 phases=3 wdg=1 bus=861.1.2.3 kv=13.2 kVA=80 wdg=2 bus=X_1244.1.2.3 kv=0.38  kVA=80 %imag=0.5 %loadloss=1.5 %noloadloss=.25 XHL=2 conns=[delta, wye] ppm_antifloat=0
New Transformer.IDSeta_1245 phases=3 wdg=1 bus=860.1.2.3 kv=13.2 kVA=80 wdg=2 bus=X_1245.1.2.3 kv=0.38  kVA=80 %imag=0.5 %loadloss=1.5 %noloadloss=.25 XHL=2 conns=[delta, wye] ppm_antifloat=0
New Transformer.IDSeta_1289 phases=3 wdg=1 bus=293.1.2.3 kv=13.2 kVA=100 wdg=2 bus=X_1289.1.2.3 kv=0.38  kVA=100 %imag=0.5 %loadloss=1.5 %noloadloss=.25 XHL=2 conns=[delta, wye] ppm_antifloat=0
New Transformer.IDSeta_1318 phases=3 wdg=1 bus=760.1.2.3 kv=13.2 kVA=5 wdg=2 bus=X_1318.1.2.3 kv=0.38  kVA=5 %imag=0.5 %loadloss=1.5 %noloadloss=.25 XHL=2 conns=[delta, wye] ppm_antifloat=0
New Transformer.IDSeta_1326 phases=3 wdg=1 bus=1281.1.2.3 kv=13.2 kVA=5 wdg=2 bus=X_1326.1.2.3 kv=0.38  kVA=5 %imag=0.5 %loadloss=1.5 %noloadloss=.25 XHL=2 conns=[delta, wye] ppm_antifloat=0
New Transformer.IDSeta_1352 phases=3 wdg=1 bus=826.1.2.3 kv=13.2 kVA=160 wdg=2 bus=X_1352.1.2.3 kv=0.38  kVA=160 %imag=0.5 %loadloss=1.5 %noloadloss=.25 XHL=2 conns=[delta, wye] ppm_antifloat=0
New Transformer.IDSeta_5030 phases=3 wdg=1 bus=1751.1.2.3 kv=33 kVA=25 wdg=2 bus=X_5030.1.2.3 kv=0.38 kVA=25 %imag=0.5 %loadloss=1.5  %noloadloss=.25 XHL=2 conns=[delta, wye] ppm_antifloat=0
New Transformer.IDSeta_1353 phases=3 wdg=1 bus=856.1.2.3 kv=13.2 kVA=200 wdg=2 bus=X_1353.1.2.3 kv=0.38  kVA=200 %imag=0.5 %loadloss=1.5 %noloadloss=.25 XHL=2 conns=[delta, wye] ppm_antifloat=0
New Transformer.IDSeta_1984 phases=3 wdg=1 bus=321.1.2.3 kv=13.2 kVA=40 wdg=2 bus=X_1984.1.2.3 kv=0.38  kVA=40 %imag=0.5 %loadloss=1.5 %noloadloss=.25 XHL=2 conns=[delta, wye] ppm_antifloat=0
New Transformer.IDSeta_2064 phases=3 wdg=1 bus=319.1.2.3 kv=13.2 kVA=63 wdg=2 bus=X_2064.1.2.3 kv=0.38  kVA=63 %imag=0.5 %loadloss=1.5 %noloadloss=.25 XHL=2 conns=[delta, wye] ppm_antifloat=0
New Transformer.IDSeta_2065 phases=3 wdg=1 bus=309.1.2.3 kv=13.2 kVA=10 wdg=2 bus=X_2065.1.2.3 kv=0.38  kVA=10 %imag=0.5 %loadloss=1.5 %noloadloss=.25 XHL=2 conns=[delta, wye] ppm_antifloat=0
New Transformer.IDSeta_2073 phases=3 wdg=1 bus=1.1.2.3 kv=13.2 kVA=40 wdg=2 bus=X_2073.1.2.3 kv=0.38  kVA=40 %imag=0.5 %loadloss=1.5 %noloadloss=.25 XHL=2 conns=[delta, wye] ppm_antifloat=0
New Transformer.IDSeta_2074 phases=3 wdg=1 bus=706.1.2.3 kv=13.2 kVA=63 wdg=2 bus=X_2074.1.2.3 kv=0.38  kVA=63 %imag=0.5 %loadloss=1.5 %noloadloss=.25 XHL=2 conns=[delta, wye] ppm_antifloat=0
New Transformer.IDSeta_151 phases=3 wdg=1 bus=1779 kv=13.2 kVA=63 wdg=2 bus=X_151.1.2.3 kv=0.38 kVA=63 %imag=0.5 %loadloss=1.5 %noloadloss=.25 XHL=2 conns=[delta, wye] ppm_antifloat=0
New Transformer.IDSeta_2286 phases=3 wdg=1 bus=867.1.2.3 kv=13.2 kVA=100 wdg=2 bus=X_2286.1.2.3 kv=0.38  kVA=100 %imag=0.5 %loadloss=1.5 %noloadloss=.25 XHL=2 conns=[delta, wye] ppm_antifloat=0
New Transformer.IDSeta_81 phases=3 wdg=1 bus=948.1.2.3 kv=13.2 kVA=400 wdg=2 bus=X_81.1.2.3 kv=0.38  kVA=400 %imag=0.5 %loadloss=1.5 %noloadloss=.25 XHL=2 conns=[delta, wye] ppm_antifloat=0
New Transformer.IDSeta_82 phases=3 wdg=1 bus=1692.1.2.3 kv=13.2 kVA=315 wdg=2 bus=X_82.1.2.3 kv=0.38  kVA=315 %imag=0.5 %loadloss=1.5 %noloadloss=.25 XHL=2 conns=[delta, wye] ppm_antifloat=0
New Transformer.IDSeta_83 phases=3 wdg=1 bus=219.1.2.3 kv=13.2 kVA=315 wdg=2 bus=X_83.1.2.3 kv=0.38  kVA=315 %imag=0.5 %loadloss=1.5 %noloadloss=.25 XHL=2 conns=[delta, wye] ppm_antifloat=0
New Transformer.IDSeta_202 phases=3 wdg=1 bus=1296.1.2.3 kv=13.2 kVA=800 wdg=2 bus=X_202.1.2.3 kv=0.38  kVA=800 %imag=0.5 %loadloss=1.5 %noloadloss=.25 XHL=2 conns=[delta, wye] ppm_antifloat=0
New Transformer.IDSeta_204 phases=3 wdg=1 bus=741.1.2.3 kv=13.2 kVA=63 wdg=2 bus=X_204.1.2.3 kv=0.38  kVA=63 %imag=0.5 %loadloss=1.5 %noloadloss=.25 XHL=2 conns=[delta, wye] ppm_antifloat=0
New Transformer.IDSeta_242 phases=3 wdg=1 bus=1536.1.2.3 kv=13.2 kVA=63 wdg=2 bus=X_242.1.2.3 kv=0.38  kVA=63 %imag=0.5 %loadloss=1.5 %noloadloss=.25 XHL=2 conns=[delta, wye] ppm_antifloat=0
New Transformer.IDSeta_252 phases=3 wdg=1 bus=805.1.2.3 kv=13.2 kVA=10 wdg=2 bus=X_252.1.2.3 kv=0.38  kVA=10 %imag=0.5 %loadloss=1.5 %noloadloss=.25 XHL=2 conns=[delta, wye] ppm_antifloat=0
New Transformer.IDSeta_335 phases=3 wdg=1 bus=1060.1.2.3 kv=13.2 kVA=315 wdg=2 bus=X_335.1.2.3 kv=0.38  kVA=315 %imag=0.5 %loadloss=1.5 %noloadloss=.25 XHL=2 conns=[delta, wye] ppm_antifloat=0
New Transformer.IDSeta_400 phases=3 wdg=1 bus=1723.1.2.3 kv=13.2 kVA=63 wdg=2 bus=X_400.1.2.3 kv=0.38  kVA=63 %imag=0.5 %loadloss=1.5 %noloadloss=.25 XHL=2 conns=[delta, wye] ppm_antifloat=0
New Transformer.IDSeta_2377 phases=3 wdg=1 bus=429.1.2.3 kv=13.2 kVA=5 wdg=2 bus=X_2377.1.2.3 kv=0.38  kVA=5 %imag=0.5 %loadloss=1.5 %noloadloss=.25 XHL=2 conns=[delta, wye] ppm_antifloat=0
New Transformer.IDSeta_2395 phases=3 wdg=1 bus=42.1.2.3 kv=13.2 kVA=25 wdg=2 bus=X_2395.1.2.3 kv=0.38  kVA=25 %imag=0.5 %loadloss=1.5 %noloadloss=.25 XHL=2 conns=[delta, wye] ppm_antifloat=0
New Transformer.IDSeta_2548 phases=3 wdg=1 bus=48 kv=13.2 kVA=5 wdg=2 bus=X_2548.1.2.3 kv=0.38 kVA=5 %imag=0.5 %loadloss=1.5 %noloadloss=.25 XHL=2 conns=[delta, wye] ppm_antifloat=0
New Transformer.IDSeta_2644 phases=3 wdg=1 bus=393.1.2.3 kv=13.2 kVA=5 wdg=2 bus=X_2644.1.2.3 kv=0.38  kVA=5 %imag=0.5 %loadloss=1.5 %noloadloss=.25 XHL=2 conns=[delta, wye] ppm_antifloat=0
New Transformer.IDSeta_3022 phases=3 wdg=1 bus=1643.1.2.3 kv=13.2 kVA=63 wdg=2 bus=X_3022.1.2.3 kv=0.38  kVA=63 %imag=0.5 %loadloss=1.5 %noloadloss=.25 XHL=2 conns=[delta, wye] ppm_antifloat=0
New Transformer.IDSeta_2645 phases=3 wdg=1 bus=266.1.2.3 kv=13.2 kVA=16 wdg=2 bus=X_2645.1.2.3 kv=0.38  kVA=16 %imag=0.5 %loadloss=1.5 %noloadloss=.25 XHL=2 conns=[delta, wye] ppm_antifloat=0
New Transformer.IDSeta_2646 phases=3 wdg=1 bus=361.1.2.3 kv=13.2 kVA=16 wdg=2 bus=X_2646.1.2.3 kv=0.38  kVA=16 %imag=0.5 %loadloss=1.5 %noloadloss=.25 XHL=2 conns=[delta, wye] ppm_antifloat=0
New Transformer.IDSeta_2660 phases=3 wdg=1 bus=657.1.2.3 kv=13.2 kVA=160 wdg=2 bus=X_2660.1.2.3 kv=0.38  kVA=160 %imag=0.5 %loadloss=1.5 %noloadloss=.25 XHL=2 conns=[delta, wye] ppm_antifloat=0
New Transformer.IDSeta_11 phases=3 wdg=1 bus=1540.1.2.3 kv=13.2 kVA=315 wdg=2 bus=X_11.1.2.3 kv=0.38  kVA=315 %imag=0.5 %loadloss=1.5 %noloadloss=.25 XHL=2 conns=[delta, wye] ppm_antifloat=0
New Transformer.IDSeta_12 phases=3 wdg=1 bus=911.1.2.3 kv=13.2 kVA=315 wdg=2 bus=X_12.1.2.3 kv=0.38  kVA=315 %imag=0.5 %loadloss=1.5 %noloadloss=.25 XHL=2 conns=[delta, wye] ppm_antifloat=0
New Transformer.IDSeta_13 phases=3 wdg=1 bus=913.1.2.3 kv=13.2 kVA=315 wdg=2 bus=X_13.1.2.3 kv=0.38  kVA=315 %imag=0.5 %loadloss=1.5 %noloadloss=.25 XHL=2 conns=[delta, wye] ppm_antifloat=0
New Transformer.IDSeta_2666 phases=3 wdg=1 bus=1417.1.2.3 kv=13.2 kVA=315 wdg=2 bus=X_2666.1.2.3 kv=0.38  kVA=315 %imag=0.5 %loadloss=1.5 %noloadloss=.25 XHL=2 conns=[delta, wye] ppm_antifloat=0
New Transformer.IDSeta_2683 phases=3 wdg=1 bus=830 kv=13.2 kVA=160 wdg=2 bus=X_2683.1.2.3 kv=0.38 kVA=160 %imag=0.5 %loadloss=1.5 %noloadloss=.25 XHL=2 conns=[delta, wye] ppm_antifloat=0
New Transformer.IDSeta_2724 phases=3 wdg=1 bus=260 kv=13.2 kVA=5 wdg=2 bus=X_2724.1.2.3 kv=0.38 kVA=5 %imag=0.5 %loadloss=1.5 %noloadloss=.25 XHL=2 conns=[delta, wye] ppm_antifloat=0
New Transformer.IDSeta_2748 phases=3 wdg=1 bus=781.1.2.3 kv=13.2 kVA=40 wdg=2 bus=X_2748.1.2.3 kv=0.38  kVA=40 %imag=0.5 %loadloss=1.5 %noloadloss=.25 XHL=2 conns=[delta, wye] ppm_antifloat=0
New Transformer.IDSeta_2937 phases=3 wdg=1 bus=100.1.2.3 kv=13.2 kVA=630 wdg=2 bus=X_2937.1.2.3 kv=0.38  kVA=630 %imag=0.5 %loadloss=1.5 %noloadloss=.25 XHL=2 conns=[delta, wye] ppm_antifloat=0
New Transformer.IDSeta_2950 phases=3 wdg=1 bus=833.1.2.3 kv=13.2 kVA=63 wdg=2 bus=X_2950.1.2.3 kv=0.38  kVA=63 %imag=0.5 %loadloss=1.5 %noloadloss=.25 XHL=2 conns=[delta, wye] ppm_antifloat=0
New Transformer.IDSeta_2951 phases=3 wdg=1 bus=313.1.2.3 kv=13.2 kVA=63 wdg=2 bus=X_2951.1.2.3 kv=0.38  kVA=63 %imag=0.5 %loadloss=1.5 %noloadloss=.25 XHL=2 conns=[delta, wye] ppm_antifloat=0
New Transformer.IDSeta_2952 phases=3 wdg=1 bus=308.1.2.3 kv=13.2 kVA=5 wdg=2 bus=X_2952.1.2.3 kv=0.38  kVA=5 %imag=0.5 %loadloss=1.5 %noloadloss=.25 XHL=2 conns=[delta, wye] ppm_antifloat=0
New Transformer.IDSeta_2953 phases=3 wdg=1 bus=1053.1.2.3 kv=13.2 kVA=25 wdg=2 bus=X_2953.1.2.3 kv=0.38  kVA=25 %imag=0.5 %loadloss=1.5 %noloadloss=.25 XHL=2 conns=[delta, wye] ppm_antifloat=0
New Transformer.IDSeta_2954 phases=3 wdg=1 bus=249.1.2.3 kv=13.2 kVA=315 wdg=2 bus=X_2954.1.2.3 kv=0.38  kVA=315 %imag=0.5 %loadloss=1.5 %noloadloss=.25 XHL=2 conns=[delta, wye] ppm_antifloat=0
New Transformer.IDSeta_2955 phases=3 wdg=1 bus=231.1.2.3 kv=13.2 kVA=200 wdg=2 bus=X_2955.1.2.3 kv=0.38  kVA=200 %imag=0.5 %loadloss=1.5 %noloadloss=.25 XHL=2 conns=[delta, wye] ppm_antifloat=0
New Transformer.IDSeta_2961 phases=3 wdg=1 bus=390.1.2.3 kv=13.2 kVA=40 wdg=2 bus=X_2961.1.2.3 kv=0.38  kVA=40 %imag=0.5 %loadloss=1.5 %noloadloss=.25 XHL=2 conns=[delta, wye] ppm_antifloat=0
New Transformer.IDSeta_2963 phases=3 wdg=1 bus=1704.1.2.3 kv=13.2 kVA=16 wdg=2 bus=X_2963.1.2.3 kv=0.38  kVA=16 %imag=0.5 %loadloss=1.5 %noloadloss=.25 XHL=2 conns=[delta, wye] ppm_antifloat=0
New Transformer.IDSeta_2964 phases=3 wdg=1 bus=1676.1.2.3 kv=13.2 kVA=63 wdg=2 bus=X_2964.1.2.3 kv=0.38  kVA=63 %imag=0.5 %loadloss=1.5 %noloadloss=.25 XHL=2 conns=[delta, wye] ppm_antifloat=0
New Transformer.IDSeta_2968 phases=3 wdg=1 bus=277.1.2.3 kv=13.2 kVA=75 wdg=2 bus=X_2968.1.2.3 kv=0.38  kVA=75 %imag=0.5 %loadloss=1.5 %noloadloss=.25 XHL=2 conns=[delta, wye] ppm_antifloat=0
New Transformer.IDSeta_2969 phases=3 wdg=1 bus=244.1.2.3 kv=13.2 kVA=63 wdg=2 bus=X_2969.1.2.3 kv=0.38  kVA=63 %imag=0.5 %loadloss=1.5 %noloadloss=.25 XHL=2 conns=[delta, wye] ppm_antifloat=0
New Transformer.IDSeta_2970 phases=3 wdg=1 bus=720.1.2.3 kv=13.2 kVA=63 wdg=2 bus=X_2970.1.2.3 kv=0.38  kVA=63 %imag=0.5 %loadloss=1.5 %noloadloss=.25 XHL=2 conns=[delta, wye] ppm_antifloat=0
New Transformer.IDSeta_2971 phases=3 wdg=1 bus=722.1.2.3 kv=13.2 kVA=80 wdg=2 bus=X_2971.1.2.3 kv=0.38  kVA=80 %imag=0.5 %loadloss=1.5 %noloadloss=.25 XHL=2 conns=[delta, wye] ppm_antifloat=0
New Transformer.IDSeta_2972 phases=3 wdg=1 bus=243.1.2.3 kv=13.2 kVA=63 wdg=2 bus=X_2972.1.2.3 kv=0.38  kVA=63 %imag=0.5 %loadloss=1.5 %noloadloss=.25 XHL=2 conns=[delta, wye] ppm_antifloat=0
New Transformer.IDSeta_2975 phases=3 wdg=1 bus=855.1.2.3 kv=13.2 kVA=160 wdg=2 bus=X_2975.1.2.3 kv=0.38  kVA=160 %imag=0.5 %loadloss=1.5 %noloadloss=.25 XHL=2 conns=[delta, wye] ppm_antifloat=0
New Transformer.IDSeta_146 phases=3 wdg=1 bus=1762 kv=13.2 kVA=63 wdg=2 bus=X_146.1.2.3 kv=0.38 kVA=63 %imag=0.5 %loadloss=1.5 %noloadloss=.25 XHL=2 conns=[delta, wye] ppm_antifloat=0
New Transformer.IDSeta_152 phases=3 wdg=1 bus=1801 kv=13.2 kVA=80 wdg=2 bus=X_152.1.2.3 kv=0.38 kVA=80 %imag=0.5 %loadloss=1.5 %noloadloss=.25 XHL=2 conns=[delta, wye] ppm_antifloat=0
New Transformer.IDSeta_19 phases=3 wdg=1 bus=1051.1.2.3 kv=13.2 kVA=40 wdg=2 bus=X_19.1.2.3 kv=0.38  kVA=40 %imag=0.5 %loadloss=1.5 %noloadloss=.25 XHL=2 conns=[delta, wye] ppm_antifloat=0
New Transformer.IDSeta_21 phases=3 wdg=1 bus=104.1.2.3 kv=13.2 kVA=63 wdg=2 bus=X_21.1.2.3 kv=0.38  kVA=63 %imag=0.5 %loadloss=1.5 %noloadloss=.25 XHL=2 conns=[delta, wye] ppm_antifloat=0
New Transformer.IDSeta_24 phases=3 wdg=1 bus=1400.1.2.3 kv=13.2 kVA=200 wdg=2 bus=X_24.1.2.3 kv=0.38  kVA=200 %imag=0.5 %loadloss=1.5 %noloadloss=.25 XHL=2 conns=[delta, wye] ppm_antifloat=0
New Transformer.IDSeta_25 phases=3 wdg=1 bus=1056.1.2.3 kv=13.2 kVA=25 wdg=2 bus=X_25.1.2.3 kv=0.38  kVA=25 %imag=0.5 %loadloss=1.5 %noloadloss=.25 XHL=2 conns=[delta, wye] ppm_antifloat=0
New Transformer.IDSeta_27 phases=3 wdg=1 bus=1085.1.2.3 kv=13.2 kVA=80 wdg=2 bus=X_27.1.2.3 kv=0.38  kVA=80 %imag=0.5 %loadloss=1.5 %noloadloss=.25 XHL=2 conns=[delta, wye] ppm_antifloat=0
New Transformer.IDSeta_60 phases=3 wdg=1 bus=976.1.2.3 kv=13.2 kVA=200 wdg=2 bus=X_60.1.2.3 kv=0.38  kVA=200 %imag=0.5 %loadloss=1.5 %noloadloss=.25 XHL=2 conns=[delta, wye] ppm_antifloat=0
New Transformer.IDSeta_378 phases=3 wdg=1 bus=1000.1.2.3 kv=13.2 kVA=160 wdg=2 bus=X_378.1.2.3 kv=0.38  kVA=160 %imag=0.5 %loadloss=1.5 %noloadloss=.25 XHL=2 conns=[delta, wye] ppm_antifloat=0
New Transformer.IDSeta_401 phases=3 wdg=1 bus=850.1.2.3 kv=13.2 kVA=16 wdg=2 bus=X_401.1.2.3 kv=0.38  kVA=16 %imag=0.5 %loadloss=1.5 %noloadloss=.25 XHL=2 conns=[delta, wye] ppm_antifloat=0
New Transformer.IDSeta_2977 phases=3 wdg=1 bus=663.1.2.3 kv=13.2 kVA=63 wdg=2 bus=X_2977.1.2.3 kv=0.38  kVA=63 %imag=0.5 %loadloss=1.5 %noloadloss=.25 XHL=2 conns=[delta, wye] ppm_antifloat=0
New Transformer.IDSeta_2978 phases=3 wdg=1 bus=262.1.2.3 kv=13.2 kVA=80 wdg=2 bus=X_2978.1.2.3 kv=0.38  kVA=80 %imag=0.5 %loadloss=1.5 %noloadloss=.25 XHL=2 conns=[delta, wye] ppm_antifloat=0
New Transformer.IDSeta_2979 phases=3 wdg=1 bus=237.1.2.3 kv=13.2 kVA=100 wdg=2 bus=X_2979.1.2.3 kv=0.38  kVA=100 %imag=0.5 %loadloss=1.5 %noloadloss=.25 XHL=2 conns=[delta, wye] ppm_antifloat=0
New Transformer.IDSeta_2981 phases=3 wdg=1 bus=29.1.2.3 kv=13.2 kVA=40 wdg=2 bus=X_2981.1.2.3 kv=0.38  kVA=40 %imag=0.5 %loadloss=1.5 %noloadloss=.25 XHL=2 conns=[delta, wye] ppm_antifloat=0
New Transformer.IDSeta_2983 phases=3 wdg=1 bus=501.1.2.3 kv=13.2 kVA=630 wdg=2 bus=BusMT_501.1.2.3 kv=33  kVA=630 %imag=0.5  %loadloss=1.5 %noloadloss=.25 XHL=2 conns=[delta, delta]
New Transformer.IDSeta_2984 phases=3 wdg=1 bus=879.1.2.3 kv=13.2 kVA=500 wdg=2 bus=X_2984.1.2.3 kv=0.38  kVA=500 %imag=0.5 %loadloss=1.5 %noloadloss=.25 XHL=2 conns=[delta, wye] ppm_antifloat=0
New Transformer.IDSeta_2987 phases=3 wdg=1 bus=1432.1.2.3 kv=13.2 kVA=25 wdg=2 bus=X_2987.1.2.3 kv=0.38  kVA=25 %imag=0.5 %loadloss=1.5 %noloadloss=.25 XHL=2 conns=[delta, wye] ppm_antifloat=0
New Transformer.IDSeta_2993 phases=3 wdg=1 bus=291.1.2.3 kv=13.2 kVA=5 wdg=2 bus=X_2993.1.2.3 kv=0.38  kVA=5 %imag=0.5 %loadloss=1.5 %noloadloss=.25 XHL=2 conns=[delta, wye] ppm_antifloat=0
New Transformer.IDSeta_2996 phases=3 wdg=1 bus=1284.1.2.3 kv=13.2 kVA=315 wdg=2 bus=X_2996.1.2.3 kv=0.38  kVA=315 %imag=0.5 %loadloss=1.5 %noloadloss=.25 XHL=2 conns=[delta, wye] ppm_antifloat=0
New Transformer.IDSeta_2997 phases=3 wdg=1 bus=1402.1.2.3 kv=13.2 kVA=100 wdg=2 bus=X_2997.1.2.3 kv=0.38  kVA=100 %imag=0.5 %loadloss=1.5 %noloadloss=.25 XHL=2 conns=[delta, wye] ppm_antifloat=0
New Transformer.IDSeta_2999 phases=3 wdg=1 bus=342.1.2.3 kv=13.2 kVA=25 wdg=2 bus=X_2999.1.2.3 kv=0.38  kVA=25 %imag=0.5 %loadloss=1.5 %noloadloss=.25 XHL=2 conns=[delta, wye] ppm_antifloat=0
New Transformer.IDSeta_33 phases=3 wdg=1 bus=1688.1.2.3 kv=13.2 kVA=160 wdg=2 bus=X_33.1.2.3 kv=0.38  kVA=160 %imag=0.5 %loadloss=1.5 %noloadloss=.25 XHL=2 conns=[delta, wye] ppm_antifloat=0
New Transformer.IDSeta_45 phases=3 wdg=1 bus=1398.1.2.3 kv=13.2 kVA=400 wdg=2 bus=X_45.1.2.3 kv=0.38  kVA=400 %imag=0.5 %loadloss=1.5 %noloadloss=.25 XHL=2 conns=[delta, wye] ppm_antifloat=0
New Transformer.IDSeta_47 phases=3 wdg=1 bus=1064.1.2.3 kv=13.2 kVA=100 wdg=2 bus=X_47.1.2.3 kv=0.38  kVA=100 %imag=0.5 %loadloss=1.5 %noloadloss=.25 XHL=2 conns=[delta, wye] ppm_antifloat=0
New Transformer.IDSeta_3000 phases=3 wdg=1 bus=1338.1.2.3 kv=13.2 kVA=40 wdg=2 bus=X_3000.1.2.3 kv=0.38  kVA=40 %imag=0.5 %loadloss=1.5 %noloadloss=.25 XHL=2 conns=[delta, wye] ppm_antifloat=0
New Transformer.IDSeta_3001 phases=3 wdg=1 bus=41.1.2.3 kv=13.2 kVA=80 wdg=2 bus=X_3001.1.2.3 kv=0.38  kVA=80 %imag=0.5 %loadloss=1.5 %noloadloss=.25 XHL=2 conns=[delta, wye] ppm_antifloat=0
New Transformer.IDSeta_3002 phases=3 wdg=1 bus=43.1.2.3 kv=13.2 kVA=63 wdg=2 bus=X_3002.1.2.3 kv=0.38  kVA=63 %imag=0.5 %loadloss=1.5 %noloadloss=.25 XHL=2 conns=[delta, wye] ppm_antifloat=0
New Transformer.IDSeta_3003 phases=3 wdg=1 bus=1067.1.2.3 kv=13.2 kVA=160 wdg=2 bus=X_3003.1.2.3 kv=0.38  kVA=160 %imag=0.5 %loadloss=1.5 %noloadloss=.25 XHL=2 conns=[delta, wye] ppm_antifloat=0
New Transformer.IDSeta_3006 phases=3 wdg=1 bus=1041.1.2.3 kv=13.2 kVA=200 wdg=2 bus=X_3006.1.2.3 kv=0.38  kVA=200 %imag=0.5 %loadloss=1.5 %noloadloss=.25 XHL=2 conns=[delta, wye] ppm_antifloat=0
New Transformer.IDSeta_3009 phases=3 wdg=1 bus=63.1.2.3 kv=13.2 kVA=315 wdg=2 bus=X_3009.1.2.3 kv=0.38  kVA=315 %imag=0.5 %loadloss=1.5 %noloadloss=.25 XHL=2 conns=[delta, wye] ppm_antifloat=0
New Transformer.IDSeta_3010 phases=3 wdg=1 bus=366.1.2.3 kv=13.2 kVA=25 wdg=2 bus=X_3010.1.2.3 kv=0.38  kVA=25 %imag=0.5 %loadloss=1.5 %noloadloss=.25 XHL=2 conns=[delta, wye] ppm_antifloat=0
New Transformer.IDSeta_3011 phases=3 wdg=1 bus=76.1.2.3 kv=13.2 kVA=40 wdg=2 bus=X_3011.1.2.3 kv=0.38  kVA=40 %imag=0.5 %loadloss=1.5 %noloadloss=.25 XHL=2 conns=[delta, wye] ppm_antifloat=0
New Transformer.IDSeta_3012 phases=3 wdg=1 bus=1013.1.2.3 kv=13.2 kVA=125 wdg=2 bus=X_3012.1.2.3 kv=0.38  kVA=125 %imag=0.5 %loadloss=1.5 %noloadloss=.25 XHL=2 conns=[delta, wye] ppm_antifloat=0
New Transformer.IDSeta_3013 phases=3 wdg=1 bus=692.1.2.3 kv=13.2 kVA=160 wdg=2 bus=X_3013.1.2.3 kv=0.38  kVA=160 %imag=0.5 %loadloss=1.5 %noloadloss=.25 XHL=2 conns=[delta, wye] ppm_antifloat=0
New Transformer.IDSeta_3014 phases=3 wdg=1 bus=1312.1.2.3 kv=13.2 kVA=40 wdg=2 bus=X_3014.1.2.3 kv=0.38  kVA=40 %imag=0.5 %loadloss=1.5 %noloadloss=.25 XHL=2 conns=[delta, wye] ppm_antifloat=0
New Transformer.IDSeta_3015 phases=3 wdg=1 bus=1447.1.2.3 kv=13.2 kVA=63 wdg=2 bus=X_3015.1.2.3 kv=0.38  kVA=63 %imag=0.5 %loadloss=1.5 %noloadloss=.25 XHL=2 conns=[delta, wye] ppm_antifloat=0
New Transformer.IDSeta_3016 phases=3 wdg=1 bus=774.1.2.3 kv=13.2 kVA=100 wdg=2 bus=X_3016.1.2.3 kv=0.38  kVA=100 %imag=0.5 %loadloss=1.5 %noloadloss=.25 XHL=2 conns=[delta, wye] ppm_antifloat=0
New Transformer.IDSeta_3017 phases=3 wdg=1 bus=1446 kv=13.2 kVA=100 wdg=2 bus=X_3017.1.2.3 kv=0.38 kVA=100 %imag=0.5 %loadloss=1.5 %noloadloss=.25 XHL=2 conns=[delta, wye] ppm_antifloat=0
New Transformer.IDSeta_3019 phases=3 wdg=1 bus=818.1.2.3 kv=13.2 kVA=40 wdg=2 bus=X_3019.1.2.3 kv=0.38  kVA=40 %imag=0.5 %loadloss=1.5 %noloadloss=.25 XHL=2 conns=[delta, wye] ppm_antifloat=0
New Transformer.IDSeta_3020 phases=3 wdg=1 bus=731.1.2.3 kv=13.2 kVA=63 wdg=2 bus=X_3020.1.2.3 kv=0.38  kVA=63 %imag=0.5 %loadloss=1.5 %noloadloss=.25 XHL=2 conns=[delta, wye] ppm_antifloat=0
New Transformer.IDSeta_3021 phases=3 wdg=1 bus=91.1.2.3 kv=13.2 kVA=315 wdg=2 bus=X_3021.1.2.3 kv=0.38  kVA=315 %imag=0.5 %loadloss=1.5 %noloadloss=.25 XHL=2 conns=[delta, wye] ppm_antifloat=0
New Transformer.IDSeta_3117 phases=3 wdg=1 bus=759.1.2.3 kv=13.2 kVA=80 wdg=2 bus=X_3117.1.2.3 kv=0.38  kVA=80 %imag=0.5 %loadloss=1.5 %noloadloss=.25 XHL=2 conns=[delta, wye] ppm_antifloat=0
New Transformer.IDSeta_5001 phases=3 wdg=1 bus=1197.1.2.3 kv=33 kVA=25 wdg=2 bus=X_5001.1.2.3 kv=0.38 kVA=25 %imag=0.5 %loadloss=1.5  %noloadloss=.25 XHL=2 conns=[delta, wye] ppm_antifloat=0
New Transformer.IDSeta_5002 phases=3 wdg=1 bus=1753.1.2.3 kv=33 kVA=16 wdg=2 bus=X_5002.1.2.3 kv=0.38 kVA=16 %imag=0.5 %loadloss=1.5  %noloadloss=.25 XHL=2 conns=[delta, wye] ppm_antifloat=0
New Transformer.IDSeta_5007 phases=3 wdg=1 bus=1241.1.2.3 kv=33 kVA=5 wdg=2 bus=X_5007.1.2.3 kv=0.38 kVA=5 %imag=0.5 %loadloss=1.5  %noloadloss=.25 XHL=2 conns=[delta, wye] ppm_antifloat=0
New Transformer.IDSeta_48 phases=3 wdg=1 bus=1456.1.2.3 kv=13.2 kVA=200 wdg=2 bus=X_48.1.2.3 kv=0.38  kVA=200 %imag=0.5 %loadloss=1.5 %noloadloss=.25 XHL=2 conns=[delta, wye] ppm_antifloat=0
New Transformer.IDSeta_49 phases=3 wdg=1 bus=1635.1.2.3 kv=13.2 kVA=315 wdg=2 bus=X_49.1.2.3 kv=0.38  kVA=315 %imag=0.5 %loadloss=1.5 %noloadloss=.25 XHL=2 conns=[delta, wye] ppm_antifloat=0
New Transformer.IDSeta_52 phases=3 wdg=1 bus=989.1.2.3 kv=13.2 kVA=315 wdg=2 bus=X_52.1.2.3 kv=0.38  kVA=315 %imag=0.5 %loadloss=1.5 %noloadloss=.25 XHL=2 conns=[delta, wye] ppm_antifloat=0
New Transformer.IDSeta_53 phases=3 wdg=1 bus=1003.1.2.3 kv=13.2 kVA=200 wdg=2 bus=X_53.1.2.3 kv=0.38  kVA=200 %imag=0.5 %loadloss=1.5 %noloadloss=.25 XHL=2 conns=[delta, wye] ppm_antifloat=0
New Transformer.IDSeta_54 phases=3 wdg=1 bus=1345.1.2.3 kv=13.2 kVA=315 wdg=2 bus=X_54.1.2.3 kv=0.38  kVA=315 %imag=0.5 %loadloss=1.5 %noloadloss=.25 XHL=2 conns=[delta, wye] ppm_antifloat=0
New Transformer.IDSeta_55 phases=3 wdg=1 bus=997.1.2.3 kv=13.2 kVA=315 wdg=2 bus=X_55.1.2.3 kv=0.38  kVA=315 %imag=0.5 %loadloss=1.5 %noloadloss=.25 XHL=2 conns=[delta, wye] ppm_antifloat=0
New Transformer.IDSeta_56 phases=3 wdg=1 bus=982.1.2.3 kv=13.2 kVA=315 wdg=2 bus=X_56.1.2.3 kv=0.38  kVA=315 %imag=0.5 %loadloss=1.5 %noloadloss=.25 XHL=2 conns=[delta, wye] ppm_antifloat=0
New Transformer.IDSeta_5008 phases=3 wdg=1 bus=1252.1.2.3 kv=33 kVA=25 wdg=2 bus=X_5008.1.2.3 kv=0.38 kVA=25 %imag=0.5 %loadloss=1.5  %noloadloss=.25 XHL=2 conns=[delta, wye] ppm_antifloat=0
New Transformer.IDSeta_5009 phases=3 wdg=1 bus=1465.1.2.3 kv=33 kVA=63 wdg=2 bus=X_5009.1.2.3 kv=0.38 kVA=63 %imag=0.5 %loadloss=1.5  %noloadloss=.25 XHL=2 conns=[delta, wye] ppm_antifloat=0
New Transformer.IDSeta_5012 phases=3 wdg=1 bus=529.1.2.3 kv=13.2 kVA=5 wdg=2 bus=X_5012.1.2.3 kv=0.38  kVA=5 %imag=0.5 %loadloss=1.5 %noloadloss=.25 XHL=2 conns=[delta, wye] ppm_antifloat=0
New Transformer.IDSeta_5013 phases=3 wdg=1 bus=554.1.2.3 kv=13.2 kVA=10 wdg=2 bus=X_5013.1.2.3 kv=0.38  kVA=10 %imag=0.5 %loadloss=1.5 %noloadloss=.25 XHL=2 conns=[delta, wye] ppm_antifloat=0
New Transformer.IDSeta_5014 phases=3 wdg=1 bus=1270.1.2.3 kv=33 kVA=80 wdg=2 bus=BusMT_1270.1.2.3 kv=13.2 kVA=80 %imag=0.5 %loadloss=1.5 %noloadloss=.25 XHL=2 conns=[delta, delta]
New Transformer.IDSeta_5015 phases=3 wdg=1 bus=557.1.2.3 kv=13.2 kVA=100 wdg=2 bus=X_5015.1.2.3 kv=0.38  kVA=100 %imag=0.5 %loadloss=1.5 %noloadloss=.25 XHL=2 conns=[delta, wye] ppm_antifloat=0
New Transformer.IDSeta_5016 phases=3 wdg=1 bus=553.1.2.3 kv=13.2 kVA=10 wdg=2 bus=X_5016.1.2.3 kv=0.38  kVA=10 %imag=0.5 %loadloss=1.5 %noloadloss=.25 XHL=2 conns=[delta, wye] ppm_antifloat=0
New Transformer.IDSeta_5017 phases=3 wdg=1 bus=560.1.2.3 kv=13.2 kVA=5 wdg=2 bus=X_5017.1.2.3 kv=0.38  kVA=5 %imag=0.5 %loadloss=1.5 %noloadloss=.25 XHL=2 conns=[delta, wye] ppm_antifloat=0
New Transformer.IDSeta_5018 phases=3 wdg=1 bus=546.1.2.3 kv=13.2 kVA=5 wdg=2 bus=X_5018.1.2.3 kv=0.38  kVA=5 %imag=0.5 %loadloss=1.5 %noloadloss=.25 XHL=2 conns=[delta, wye] ppm_antifloat=0
New Transformer.IDSeta_5019 phases=3 wdg=1 bus=173.1.2.3 kv=13.2 kVA=63 wdg=2 bus=X_5019.1.2.3 kv=0.38  kVA=63 %imag=0.5 %loadloss=1.5 %noloadloss=.25 XHL=2 conns=[delta, wye] ppm_antifloat=0
New Transformer.IDSeta_5025 phases=3 wdg=1 bus=535.1.2.3 kv=13.2 kVA=16 wdg=2 bus=X_5025.1.2.3 kv=0.38  kVA=16 %imag=0.5 %loadloss=1.5 %noloadloss=.25 XHL=2 conns=[delta, wye] ppm_antifloat=0
New Transformer.IDSeta_5026 phases=3 wdg=1 bus=1186.1.2.3 kv=33 kVA=16 wdg=2 bus=X_5026.1.2.3 kv=0.38 kVA=16 %imag=0.5 %loadloss=1.5  %noloadloss=.25 XHL=2 conns=[delta, wye] ppm_antifloat=0
New Transformer.IDSeta_5027 phases=3 wdg=1 bus=1683.1.2.3 kv=13.2 kVA=10 wdg=2 bus=X_5027.1.2.3 kv=0.38  kVA=10 %imag=0.5 %loadloss=1.5 %noloadloss=.25 XHL=2 conns=[delta, wye] ppm_antifloat=0
New Transformer.IDSeta_5028 phases=3 wdg=1 bus=530.1.2.3 kv=13.2 kVA=5 wdg=2 bus=X_5028.1.2.3 kv=0.38  kVA=5 %imag=0.5 %loadloss=1.5 %noloadloss=.25 XHL=2 conns=[delta, wye] ppm_antifloat=0
New Transformer.IDSeta_57 phases=3 wdg=1 bus=944.1.2.3 kv=13.2 kVA=315 wdg=2 bus=X_57.1.2.3 kv=0.38  kVA=315 %imag=0.5 %loadloss=1.5 %noloadloss=.25 XHL=2 conns=[delta, wye] ppm_antifloat=0
New Transformer.IDSeta_59 phases=3 wdg=1 bus=977.1.2.3 kv=13.2 kVA=315 wdg=2 bus=X_59.1.2.3 kv=0.38  kVA=315 %imag=0.5 %loadloss=1.5 %noloadloss=.25 XHL=2 conns=[delta, wye] ppm_antifloat=0
New Transformer.IDSeta_61 phases=3 wdg=1 bus=965.1.2.3 kv=13.2 kVA=250 wdg=2 bus=X_61.1.2.3 kv=0.38  kVA=250 %imag=0.5 %loadloss=1.5 %noloadloss=.25 XHL=2 conns=[delta, wye] ppm_antifloat=0
New Transformer.IDSeta_71 phases=3 wdg=1 bus=915.1.2.3 kv=13.2 kVA=200 wdg=2 bus=X_71.1.2.3 kv=0.38  kVA=200 %imag=0.5 %loadloss=1.5 %noloadloss=.25 XHL=2 conns=[delta, wye] ppm_antifloat=0
New Transformer.IDSeta_72 phases=3 wdg=1 bus=97.1.2.3 kv=13.2 kVA=200 wdg=2 bus=X_72.1.2.3 kv=0.38  kVA=200 %imag=0.5 %loadloss=1.5 %noloadloss=.25 XHL=2 conns=[delta, wye] ppm_antifloat=0
New Transformer.IDSeta_75 phases=3 wdg=1 bus=905.1.2.3 kv=13.2 kVA=100 wdg=2 bus=X_75.1.2.3 kv=0.38  kVA=100 %imag=0.5 %loadloss=1.5 %noloadloss=.25 XHL=2 conns=[delta, wye] ppm_antifloat=0
New Transformer.IDSeta_76 phases=3 wdg=1 bus=930.1.2.3 kv=13.2 kVA=315 wdg=2 bus=X_76.1.2.3 kv=0.38  kVA=315 %imag=0.5 %loadloss=1.5 %noloadloss=.25 XHL=2 conns=[delta, wye] ppm_antifloat=0
New Transformer.IDSeta_77 phases=3 wdg=1 bus=62.1.2.3 kv=13.2 kVA=200 wdg=2 bus=X_77.1.2.3 kv=0.38  kVA=200 %imag=0.5 %loadloss=1.5 %noloadloss=.25 XHL=2 conns=[delta, wye] ppm_antifloat=0
New Transformer.IDSeta_78 phases=3 wdg=1 bus=1007.1.2.3 kv=13.2 kVA=200 wdg=2 bus=X_78.1.2.3 kv=0.38  kVA=200 %imag=0.5 %loadloss=1.5 %noloadloss=.25 XHL=2 conns=[delta, wye] ppm_antifloat=0
New Transformer.IDSeta_433 phases=3 wdg=1 bus=672.1.2.3 kv=13.2 kVA=100 wdg=2 bus=X_433.1.2.3 kv=0.38  kVA=100 %imag=0.5 %loadloss=1.5 %noloadloss=.25 XHL=2 conns=[delta, wye] ppm_antifloat=0
New Transformer.IDSeta_439 phases=3 wdg=1 bus=1419.1.2.3 kv=13.2 kVA=63 wdg=2 bus=X_439.1.2.3 kv=0.38  kVA=63 %imag=0.5 %loadloss=1.5 %noloadloss=.25 XHL=2 conns=[delta, wye] ppm_antifloat=0
New Transformer.IDSeta_505 phases=3 wdg=1 bus=1058.1.2.3 kv=13.2 kVA=250 wdg=2 bus=X_505.1.2.3 kv=0.38  kVA=250 %imag=0.5 %loadloss=1.5 %noloadloss=.25 XHL=2 conns=[delta, wye] ppm_antifloat=0
New Transformer.IDSeta_520 phases=3 wdg=1 bus=1535.1.2.3 kv=13.2 kVA=100 wdg=2 bus=X_520.1.2.3 kv=0.38  kVA=100 %imag=0.5 %loadloss=1.5 %noloadloss=.25 XHL=2 conns=[delta, wye] ppm_antifloat=0
New Transformer.IDSeta_523 phases=3 wdg=1 bus=889.1.2.3 kv=13.2 kVA=75 wdg=2 bus=X_523.1.2.3 kv=0.38  kVA=75 %imag=0.5 %loadloss=1.5 %noloadloss=.25 XHL=2 conns=[delta, wye] ppm_antifloat=0
New Transformer.IDSeta_524 phases=3 wdg=1 bus=4.1.2.3 kv=13.2 kVA=63 wdg=2 bus=X_524.1.2.3 kv=0.38  kVA=63 %imag=0.5 %loadloss=1.5 %noloadloss=.25 XHL=2 conns=[delta, wye] ppm_antifloat=0
New Transformer.IDSeta_527 phases=3 wdg=1 bus=1271.1.2.3 kv=13.2 kVA=100 wdg=2 bus=X_527.1.2.3 kv=0.38  kVA=100 %imag=0.5 %loadloss=1.5 %noloadloss=.25 XHL=2 conns=[delta, wye] ppm_antifloat=0
New Transformer.IDSeta_833 phases=3 wdg=1 bus=888.1.2.3 kv=13.2 kVA=80 wdg=2 bus=X_833.1.2.3 kv=0.38  kVA=80 %imag=0.5 %loadloss=1.5 %noloadloss=.25 XHL=2 conns=[delta, wye] ppm_antifloat=0
New Transformer.IDSeta_835 phases=3 wdg=1 bus=778.1.2.3 kv=13.2 kVA=160 wdg=2 bus=X_835.1.2.3 kv=0.38  kVA=160 %imag=0.5 %loadloss=1.5 %noloadloss=.25 XHL=2 conns=[delta, wye] ppm_antifloat=0
New Transformer.IDSeta_840 phases=3 wdg=1 bus=894.1.2.3 kv=13.2 kVA=160 wdg=2 bus=X_840.1.2.3 kv=0.38  kVA=160 %imag=0.5 %loadloss=1.5 %noloadloss=.25 XHL=2 conns=[delta, wye] ppm_antifloat=0
New Transformer.IDSeta_859 phases=3 wdg=1 bus=698.1.2.3 kv=13.2 kVA=63 wdg=2 bus=X_859.1.2.3 kv=0.38  kVA=63 %imag=0.5 %loadloss=1.5 %noloadloss=.25 XHL=2 conns=[delta, wye] ppm_antifloat=0
New Transformer.IDSeta_956 phases=3 wdg=1 bus=1763.1.2.3 kv=13.2 kVA=63 wdg=2 bus=X_956.1.2.3 kv=0.38  kVA=63 %imag=0.5 %loadloss=1.5 %noloadloss=.25 XHL=2 conns=[delta, wye] ppm_antifloat=0
New Transformer.IDSeta_957 phases=3 wdg=1 bus=267.1.2.3 kv=13.2 kVA=40 wdg=2 bus=X_957.1.2.3 kv=0.38  kVA=40 %imag=0.5 %loadloss=1.5 %noloadloss=.25 XHL=2 conns=[delta, wye] ppm_antifloat=0
New Transformer.IDSeta_958 phases=3 wdg=1 bus=325.1.2.3 kv=13.2 kVA=80 wdg=2 bus=X_958.1.2.3 kv=0.38  kVA=80 %imag=0.5 %loadloss=1.5 %noloadloss=.25 XHL=2 conns=[delta, wye] ppm_antifloat=0
New Transformer.IDSeta_1067 phases=3 wdg=1 bus=365.1.2.3 kv=13.2 kVA=100 wdg=2 bus=X_1067.1.2.3 kv=0.38  kVA=100 %imag=0.5 %loadloss=1.5 %noloadloss=.25 XHL=2 conns=[delta, wye] ppm_antifloat=0
New Transformer.IDSeta_1106 phases=3 wdg=1 bus=832.1.2.3 kv=13.2 kVA=100 wdg=2 bus=X_1106.1.2.3 kv=0.38  kVA=100 %imag=0.5 %loadloss=1.5 %noloadloss=.25 XHL=2 conns=[delta, wye] ppm_antifloat=0
New Transformer.IDSeta_1231 phases=3 wdg=1 bus=846.1.2.3 kv=13.2 kVA=5 wdg=2 bus=X_1231.1.2.3 kv=0.38  kVA=5 %imag=0.5 %loadloss=1.5 %noloadloss=.25 XHL=2 conns=[delta, wye] ppm_antifloat=0
New Transformer.IDSeta_1355 phases=3 wdg=1 bus=821.1.2.3 kv=13.2 kVA=80 wdg=2 bus=X_1355.1.2.3 kv=0.38  kVA=80 %imag=0.5 %loadloss=1.5 %noloadloss=.25 XHL=2 conns=[delta, wye] ppm_antifloat=0
New Transformer.IDSeta_1357 phases=3 wdg=1 bus=1289.1.2.3 kv=13.2 kVA=5 wdg=2 bus=X_1357.1.2.3 kv=0.38  kVA=5 %imag=0.5 %loadloss=1.5 %noloadloss=.25 XHL=2 conns=[delta, wye] ppm_antifloat=0
New Transformer.IDSeta_1374 phases=3 wdg=1 bus=15.1.2.3 kv=13.2 kVA=100 wdg=2 bus=X_1374.1.2.3 kv=0.38  kVA=100 %imag=0.5 %loadloss=1.5 %noloadloss=.25 XHL=2 conns=[delta, wye] ppm_antifloat=0
New Transformer.IDSeta_1382 phases=3 wdg=1 bus=287.1.2.3 kv=13.2 kVA=40 wdg=2 bus=X_1382.1.2.3 kv=0.38  kVA=40 %imag=0.5 %loadloss=1.5 %noloadloss=.25 XHL=2 conns=[delta, wye] ppm_antifloat=0
New Transformer.IDSeta_1488 phases=3 wdg=1 bus=1093.1.2.3 kv=13.2 kVA=80 wdg=2 bus=X_1488.1.2.3 kv=0.38  kVA=80 %imag=0.5 %loadloss=1.5 %noloadloss=.25 XHL=2 conns=[delta, wye] ppm_antifloat=0
New Transformer.IDSeta_1649 phases=3 wdg=1 bus=1347.1.2.3 kv=13.2 kVA=5 wdg=2 bus=X_1649.1.2.3 kv=0.38  kVA=5 %imag=0.5 %loadloss=1.5 %noloadloss=.25 XHL=2 conns=[delta, wye] ppm_antifloat=0
New Transformer.IDSeta_1759 phases=3 wdg=1 bus=367.1.2.3 kv=13.2 kVA=63 wdg=2 bus=X_1759.1.2.3 kv=0.38  kVA=63 %imag=0.5 %loadloss=1.5 %noloadloss=.25 XHL=2 conns=[delta, wye] ppm_antifloat=0
New Transformer.IDSeta_1874 phases=3 wdg=1 bus=714.1.2.3 kv=13.2 kVA=40 wdg=2 bus=X_1874.1.2.3 kv=0.38  kVA=40 %imag=0.5 %loadloss=1.5 %noloadloss=.25 XHL=2 conns=[delta, wye] ppm_antifloat=0
New Transformer.IDSeta_1945 phases=3 wdg=1 bus=717.1.2.3 kv=13.2 kVA=200 wdg=2 bus=X_1945.1.2.3 kv=0.38  kVA=200 %imag=0.5 %loadloss=1.5 %noloadloss=.25 XHL=2 conns=[delta, wye] ppm_antifloat=0
New Transformer.IDSeta_1951 phases=3 wdg=1 bus=1725.1.2.3 kv=13.2 kVA=40 wdg=2 bus=X_1951.1.2.3 kv=0.38  kVA=40 %imag=0.5 %loadloss=1.5 %noloadloss=.25 XHL=2 conns=[delta, wye] ppm_antifloat=0
New Transformer.IDSeta_1973 phases=3 wdg=1 bus=386.1.2.3 kv=13.2 kVA=40 wdg=2 bus=X_1973.1.2.3 kv=0.38  kVA=40 %imag=0.5 %loadloss=1.5 %noloadloss=.25 XHL=2 conns=[delta, wye] ppm_antifloat=0
New Transformer.IDSeta_22 phases=3 wdg=1 bus=77.1.2.3 kv=13.2 kVA=100 wdg=2 bus=X_22.1.2.3 kv=0.38  kVA=100 %imag=0.5 %loadloss=1.5 %noloadloss=.25 XHL=2 conns=[delta, wye] ppm_antifloat=0
New Transformer.IDSeta_58 phases=3 wdg=1 bus=64.1.2.3 kv=13.2 kVA=160 wdg=2 bus=X_58.1.2.3 kv=0.38  kVA=160 %imag=0.5 %loadloss=1.5 %noloadloss=.25 XHL=2 conns=[delta, wye] ppm_antifloat=0
New Transformer.IDSeta_560 phases=3 wdg=1 bus=876.1.2.3 kv=13.2 kVA=100 wdg=2 bus=X_560.1.2.3 kv=0.38  kVA=100 %imag=0.5 %loadloss=1.5 %noloadloss=.25 XHL=2 conns=[delta, wye] ppm_antifloat=0
New Transformer.IDSeta_2109 phases=3 wdg=1 bus=650.1.2.3 kv=13.2 kVA=40 wdg=2 bus=X_2109.1.2.3 kv=0.38  kVA=40 %imag=0.5 %loadloss=1.5 %noloadloss=.25 XHL=2 conns=[delta, wye] ppm_antifloat=0
New Transformer.IDSeta_2228 phases=3 wdg=1 bus=1720 kv=13.2 kVA=5 wdg=2 bus=X_2228.1.2.3 kv=0.38 kVA=5 %imag=0.5 %loadloss=1.5 %noloadloss=.25 XHL=2 conns=[delta, wye] ppm_antifloat=0
New Transformer.IDSeta_2242 phases=3 wdg=1 bus=154.1.2.3 kv=13.2 kVA=50 wdg=2 bus=X_2242.1.2.3 kv=0.38  kVA=50 %imag=0.5 %loadloss=1.5 %noloadloss=.25 XHL=2 conns=[delta, wye] ppm_antifloat=0
New Transformer.IDSeta_2258 phases=3 wdg=1 bus=870.1.2.3 kv=13.2 kVA=80 wdg=2 bus=X_2258.1.2.3 kv=0.38  kVA=80 %imag=0.5 %loadloss=1.5 %noloadloss=.25 XHL=2 conns=[delta, wye] ppm_antifloat=0
New Transformer.IDSeta_2792 phases=3 wdg=1 bus=332.1.2.3 kv=13.2 kVA=200 wdg=2 bus=X_2792.1.2.3 kv=0.38  kVA=200 %imag=0.5 %loadloss=1.5 %noloadloss=.25 XHL=2 conns=[delta, wye] ppm_antifloat=0
New Transformer.IDSeta_2794 phases=3 wdg=1 bus=1781.1.2.3 kv=13.2 kVA=63 wdg=2 bus=X_2794.1.2.3 kv=0.38  kVA=63 %imag=0.5 %loadloss=1.5 %noloadloss=.25 XHL=2 conns=[delta, wye] ppm_antifloat=0
New Transformer.IDSeta_2795 phases=3 wdg=1 bus=241.1.2.3 kv=13.2 kVA=40 wdg=2 bus=X_2795.1.2.3 kv=0.38  kVA=40 %imag=0.5 %loadloss=1.5 %noloadloss=.25 XHL=2 conns=[delta, wye] ppm_antifloat=0
...
