dss/import/decsa/Demanda_Escenario_Base_Caso_1.txt
New Load.Carga_IDSeta_2943 phases=3 bus1=X_2943.1.2.3.0 kv=0.38 kW=132.69670473340852 pf=0.9 status=variable model=1 CVRwatts=0.8 CVRvars=3 Class=1 daily=334 conn=wye
New Load.Carga_IDSeta_3012 phases=3 bus1=X_3012.1.2.3.0 kv=0.38 kW=62.35991182416547 pf=0.9 status=variable model=1 CVRwatts=0.8 CVRvars=3 Class=1 daily=335 conn=wye
New Load.Carga_IDSeta_2982 phases=3 bus1=X_2982.1.2.3.0 kv=0.38 kW=9.498742880978787 pf=0.9 status=variable model=1 CVRwatts=0.8 CVRvars=3 Class=1 daily=333 conn=wye
New Load.Carga_IDSeta_2986 phases=3 bus1=X_2986.1.2.3.0 kv=0.38 kW=51.486539168523336 pf=0.9 status=variable model=1 CVRwatts=0.8 CVRvars=3 Class=1 daily=333 conn=wye
New Load.Carga_IDSeta_205 phases=3 bus1=X_205.1.2.3.0 kv=0.38 kW=2.781197589840519 pf=0.9 status=variable model=1 CVRwatts=0.8 CVRvars=3 Class=1 daily=332 conn=wye
New Load.Carga_IDSeta_1354 phases=3 bus1=X_1354.1.2.3.0 kv=0.38 kW=4.786113288650431 pf=0.9 status=variable model=1 CVRwatts=0.8 CVRvars=3 Class=1 daily=332 conn=wye
New Load.Carga_IDSeta_2073 phases=3 bus1=X_2073.1.2.3.0 kv=0.38 kW=4.255730666262581 pf=0.9 status=variable model=1 CVRwatts=0.8 CVRvars=3 Class=1 daily=332 conn=wye
New Load.Carga_IDSeta_828 phases=3 bus1=X_828.1.2.3.0 kv=0.38 kW=10.68962354930228 pf=0.9 status=variable model=1 CVRwatts=0.8 CVRvars=3 Class=1 daily=333 conn=wye
New Load.Carga_IDSeta_115 phases=3 bus1=X_115.1.2.3.0 kv=0.38 kW=20.67168545837579 pf=0.9 status=variable model=1 CVRwatts=0.8 CVRvars=3 Class=1 daily=333 conn=wye
New Load.Carga_IDSeta_1245 phases=3 bus1=X_1245.1.2.3.0 kv=0.38 kW=17.114619765462436 pf=0.9 status=variable model=1 CVRwatts=0.8 CVRvars=3 Class=1 daily=332 conn=wye
New Load.Carga_IDSeta_848 phases=3 bus1=X_848.1.2.3.0 kv=0.38 kW=12.444086225032116 pf=0.9 status=variable model=1 CVRwatts=0.8 CVRvars=3 Class=1 daily=332 conn=wye
New Load.Carga_IDSeta_1945 phases=3 bus1=X_1945.1.2.3.0 kv=0.38 kW=61.09913506033859 pf=0.9 status=variable model=1 CVRwatts=0.8 CVRvars=3 Class=1 daily=332 conn=wye
New Load.Carga_IDSeta_2970 phases=3 bus1=X_2970.1.2.3.0 kv=0.38 kW=5.056566065994674 pf=0.9 status=variable model=1 CVRwatts=0.8 CVRvars=3 Class=1 daily=332 conn=wye
New Load.Carga_IDSeta_2971 phases=3 bus1=X_2971.1.2.3.0 kv=0.38 kW=44.16582024320353 pf=0.9 status=variable model=1 CVRwatts=0.8 CVRvars=3 Class=1 daily=332 conn=wye
New Load.Carga_IDSeta_3002 phases=3 bus1=X_3002.1.2.3.0 kv=0.38 kW=27.99331560018915 pf=0.9 status=variable model=1 CVRwatts=0.8 CVRvars=3 Class=1 daily=333 conn=wye
New Load.Carga_IDSeta_1067 phases=3 bus1=X_1067.1.2.3.0 kv=0.38 kW=2.649546203564333 pf=0.9 status=variable model=1 CVRwatts=0.8 CVRvars=3 Class=1 daily=333 conn=wye
New Load.Carga_IDSeta_821 phases=3 bus1=X_821.1.2.3.0 kv=0.38 kW=36.12635565988946 pf=0.9 status=variable model=1 CVRwatts=0.8 CVRvars=3 Class=1 daily=333 conn=wye
New Load.Carga_IDSeta_210 phases=3 bus1=X_210.1.2.3.0 kv=0.38 kW=0.8098859389695412 pf=0.9 status=variable model=1 CVRwatts=0.8 CVRvars=3 Class=1 daily=333 conn=wye
New Load.Carga_IDSeta_784 phases=3 bus1=X_784.1.2.3.0 kv=0.38 kW=83.89286229100081 pf=0.9 status=variable model=1 CVRwatts=0.8 CVRvars=3 Class=1 daily=333 conn=wye
New Load.Carga_IDSeta_2960 phases=3 bus1=X_2960.1.2.3.0 kv=0.38 kW=1.12992151162686 pf=0.9 status=variable model=1 CVRwatts=0.8 CVRvars=3 Class=1 daily=333 conn=wye
New Load.Carga_IDSeta_646 phases=3 bus1=X_646.1.2.3.0 kv=0.38 kW=0.587820439574667 pf=0.9 status=variable model=1 CVRwatts=0.8 CVRvars=3 Class=1 daily=333 conn=wye
! New Load.Carga_IDSeta_2952 phases=3 bus1=X_2952.1.2.3.0 kv=0.38 kW=0.0 pf=0.9 status=variable model=1 CVRwatts=0.8 CVRvars=3 Class=1 daily=333 conn=wye
New Load.Carga_IDSeta_2959 phases=3 bus1=X_2959.1.2.3.0 kv=0.38 kW=17.003250492882035 pf=0.9 status=variable model=1 CVRwatts=0.8 CVRvars=3 Class=1 daily=333 conn=wye
New Load.Carga_IDSeta_2956 phases=3 bus1=X_2956.1.2.3.0 kv=0.38 kW=1.8810254066389347 pf=0.9 status=variable model=1 CVRwatts=0.8 CVRvars=3 Class=1 daily=333 conn=wye
New Load.Carga_IDSeta_2088 phases=3 bus1=X_2088.1.2.3.0 kv=0.38 kW=11.419969152494701 pf=0.9 status=variable model=1 CVRwatts=0.8 CVRvars=3 Class=1 daily=332 conn=wye
New Load.Carga_IDSeta_560 phases=3 bus1=X_560.1.2.3.0 kv=0.38 kW=37.89917446499789 pf=0.9 status=variable model=1 CVRwatts=0.8 CVRvars=3 Class=1 daily=332 conn=wye
New Load.Carga_IDSeta_1638 phases=3 bus1=X_1638.1.2.3.0 kv=0.38 kW=7.887560701585748 pf=0.9 status=variable model=1 CVRwatts=0.8 CVRvars=3 Class=1 daily=332 conn=wye
New Load.Carga_IDSeta_2396 phases=3 bus1=X_2396.1.2.3.0 kv=0.38 kW=1.098295119902562 pf=0.9 status=variable model=1 CVRwatts=0.8 CVRvars=3 Class=1 daily=332 conn=wye
New Load.Carga_IDSeta_1951 phases=3 bus1=X_1951.1.2.3.0 kv=0.38 kW=1.248548792588708 pf=0.9 status=variable model=1 CVRwatts=0.8 CVRvars=3 Class=1 daily=332 conn=wye
New Load.Carga_IDSeta_570 phases=3 bus1=X_570.1.2.3.0 kv=0.38 kW=22.134556826672927 pf=0.9 status=variable model=1 CVRwatts=0.8 CVRvars=3 Class=1 daily=332 conn=wye
New Load.Carga_IDSeta_2940 phases=3 bus1=X_2940.1.2.3.0 kv=0.38 kW=83.52208625121321 pf=0.9 status=variable model=1 CVRwatts=0.8 CVRvars=3 Class=1 daily=335 conn=wye
New Load.Carga_IDSeta_1594 phases=3 bus1=X_1594.1.2.3.0 kv=0.38 kW=125.218131857994 pf=0.9 status=variable model=1 CVRwatts=0.8 CVRvars=3 Class=1 daily=335 conn=wye
New Load.Carga_IDSeta_1595 phases=3 bus1=X_1595.1.2.3.0 kv=0.38 kW=160.4108013893683 pf=0.9 status=variable model=1 CVRwatts=0.8 CVRvars=3 Class=1 daily=335 conn=wye
New Load.Carga_IDSeta_2937 phases=3 bus1=X_2937.1.2.3.0 kv=0.38 kW=149.92782596645444 pf=0.9 status=variable model=1 CVRwatts=0.8 CVRvars=3 Class=1 daily=332 conn=wye
New Load.Carga_IDSeta_2947 phases=3 bus1=X_2947.1.2.3.0 kv=0.38 kW=8.373647337549606 pf=0.9 status=variable model=1 CVRwatts=0.8 CVRvars=3 Class=1 daily=332 conn=wye
New Load.Carga_IDSeta_593 phases=3 bus1=X_593.1.2.3.0 kv=0.38 kW=11.5081394413525 pf=0.9 status=variable model=1 CVRwatts=0.8 CVRvars=3 Class=1 daily=332 conn=wye
New Load.Carga_IDSeta_2948 phases=3 bus1=X_2948.1.2.3.0 kv=0.38 kW=6.231339327754325 pf=0.9 status=variable model=1 CVRwatts=0.8 CVRvars=3 Class=1 daily=332 conn=wye
New Load.Carga_IDSeta_594 phases=3 bus1=X_594.1.2.3.0 kv=0.38 kW=12.769741270182982 pf=0.9 status=variable model=1 CVRwatts=0.8 CVRvars=3 Class=1 daily=332 conn=wye
New Load.Carga_IDSeta_859 phases=3 bus1=X_859.1.2.3.0 kv=0.38 kW=6.484273052051606 pf=0.9 status=variable model=1 CVRwatts=0.8 CVRvars=3 Class=1 daily=332 conn=wye
New Load.Carga_IDSeta_2074 phases=3 bus1=X_2074.1.2.3.0 kv=0.38 kW=0.918121051367063 pf=0.9 status=variable model=1 CVRwatts=0.8 CVRvars=3 Class=1 daily=332 conn=wye
New Load.Carga_IDSeta_596 phases=3 bus1=X_596.1.2.3.0 kv=0.38 kW=1.004374594814908 pf=0.9 status=variable model=1 CVRwatts=0.8 CVRvars=3 Class=1 daily=332 conn=wye
New Load.Carga_IDSeta_1874 phases=3 bus1=X_1874.1.2.3.0 kv=0.38 kW=31.03091980497057 pf=0.9 status=variable model=1 CVRwatts=0.8 CVRvars=3 Class=1 daily=332 conn=wye
New Load.Carga_IDSeta_956 phases=3 bus1=X_956.1.2.3.0 kv=0.38 kW=10.10180310972761 pf=0.9 status=variable model=1 CVRwatts=0.8 CVRvars=3 Class=1 daily=333 conn=wye
New Load.Carga_IDSeta_2258 phases=3 bus1=X_2258.1.2.3.0 kv=0.38 kW=9.04186312236711 pf=0.9 status=variable model=1 CVRwatts=0.8 CVRvars=3 Class=1 daily=332 conn=wye
New Load.Carga_IDSeta_2286 phases=3 bus1=X_2286.1.2.3.0 kv=0.38 kW=24.258329908353964 pf=0.9 status=variable model=1 CVRwatts=0.8 CVRvars=3 Class=1 daily=332 conn=wye
New Load.Carga_IDSeta_582 phases=3 bus1=X_582.1.2.3.0 kv=0.38 kW=5.817322319204669 pf=0.9 status=variable model=1 CVRwatts=0.8 CVRvars=3 Class=1 daily=332 conn=wye
New Load.Carga_IDSeta_2962 phases=3 bus1=X_2962.1.2.3.0 kv=0.38 kW=0.7619894587079018 pf=0.9 status=variable model=1 CVRwatts=0.8 CVRvars=3 Class=1 daily=333 conn=wye
New Load.Carga_IDSeta_957 phases=3 bus1=X_957.1.2.3.0 kv=0.38 kW=15.43790643342209 pf=0.9 status=variable model=1 CVRwatts=0.8 CVRvars=3 Class=1 daily=333 conn=wye
New Load.Carga_IDSeta_958 phases=3 bus1=X_958.1.2.3.0 kv=0.38 kW=11.815713342508205 pf=0.9 status=variable model=1 CVRwatts=0.8 CVRvars=3 Class=1 daily=333 conn=wye
New Load.Carga_IDSeta_2949 phases=3 bus1=X_2949.1.2.3.0 kv=0.38 kW=0.16981479365490382 pf=0.9 status=variable model=1 CVRwatts=0.8 CVRvars=3 Class=1 daily=333 conn=wye
New Load.Carga_IDSeta_2966 phases=3 bus1=X_2966.1.2.3.0 kv=0.38 kW=0.24819085226485943 pf=0.9 status=variable model=1 CVRwatts=0.8 CVRvars=3 Class=1 daily=333 conn=wye
New Load.Carga_IDSeta_2968 phases=3 bus1=X_2968.1.2.3.0 kv=0.38 kW=9.092689583997041 pf=0.9 status=variable model=1 CVRwatts=0.8 CVRvars=3 Class=1 daily=333 conn=wye
New Load.Carga_IDSeta_520 phases=3 bus1=X_520.1.2.3.0 kv=0.38 kW=60.04594498706181 pf=0.9 status=variable model=1 CVRwatts=0.8 CVRvars=3 Class=1 daily=333 conn=wye
New Load.Carga_IDSeta_644 phases=3 bus1=X_644.1.2.3.0 kv=0.38 kW=4.145222655370986 pf=0.9 status=variable model=1 CVRwatts=0.8 CVRvars=3 Class=1 daily=333 conn=wye
New Load.Carga_IDSeta_1046 phases=3 bus1=X_1046.1.2.3.0 kv=0.38 kW=4.490033625175128 pf=0.9 status=variable model=1 CVRwatts=0.8 CVRvars=3 Class=1 daily=332 conn=wye
New Load.Carga_IDSeta_2992 phases=3 bus1=X_2992.1.2.3.0 kv=0.38 kW=20.18566759619591 pf=0.9 status=variable model=1 CVRwatts=0.8 CVRvars=3 Class=1 daily=332 conn=wye
New Load.Carga_IDSeta_524 phases=3 bus1=X_524.1.2.3.0 kv=0.38 kW=13.823893743294343 pf=0.9 status=variable model=1 CVRwatts=0.8 CVRvars=3 Class=1 daily=332 conn=wye
New Load.Carga_IDSeta_1106 phases=3 bus1=X_1106.1.2.3.0 kv=0.38 kW=16.07242778370917 pf=0.9 status=variable model=1 CVRwatts=0.8 CVRvars=3 Class=1 daily=332 conn=wye
New Load.Carga_IDSeta_2950 phases=3 bus1=X_2950.1.2.3.0 kv=0.38 kW=8.471880539809652 pf=0.9 status=variable model=1 CVRwatts=0.8 CVRvars=3 Class=1 daily=332 conn=wye
! New Load.Carga_IDSeta_1213 phases=3 bus1=X_1213.1.2.3.0 kv=0.38 kW=0.0 pf=0.9 status=variable model=1 CVRwatts=0.8 CVRvars=3 Class=1 daily=332 conn=wye
New Load.Carga_IDSeta_2643 phases=3 bus1=X_2643.1.2.3.0 kv=0.38 kW=25.049524078674 pf=0.9 status=variable model=1 CVRwatts=0.8 CVRvars=3 Class=1 daily=332 conn=wye
New Load.Carga_IDSeta_2967 phases=3 bus1=X_2967.1.2.3.0 kv=0.38 kW=3.1472959631413726 pf=0.9 status=variable model=1 CVRwatts=0.8 CVRvars=3 Class=1 daily=332 conn=wye
New Load.Carga_IDSeta_2973 phases=3 bus1=X_2973.1.2.3.0 kv=0.38 kW=11.993076030070382 pf=0.9 status=variable model=1 CVRwatts=0.8 CVRvars=3 Class=1 daily=332 conn=wye
New Load.Carga_IDSeta_2963 phases=3 bus1=X_2963.1.2.3.0 kv=0.38 kW=0.6640193854454571 pf=0.9 status=variable model=1 CVRwatts=0.8 CVRvars=3 Class=1 daily=333 conn=wye
New Load.Carga_IDSeta_2989 phases=3 bus1=X_2989.1.2.3.0 kv=0.38 kW=4.186587797415129 pf=0.9 status=variable model=1 CVRwatts=0.8 CVRvars=3 Class=1 daily=333 conn=wye
New Load.Carga_IDSeta_968 phases=3 bus1=X_968.1.2.3.0 kv=0.38 kW=58.64270874216012 pf=0.9 status=variable model=1 CVRwatts=0.8 CVRvars=3 Class=1 daily=333 conn=wye
New Load.Carga_IDSeta_1002 phases=3 bus1=X_1002.1.2.3.0 kv=0.38 kW=33.04660761298441 pf=0.9 status=variable model=1 CVRwatts=0.8 CVRvars=3 Class=1 daily=332 conn=wye
New Load.Carga_IDSeta_2957 phases=3 bus1=X_2957.1.2.3.0 kv=0.38 kW=1.2363007894191143 pf=0.9 status=variable model=1 CVRwatts=0.8 CVRvars=3 Class=1 daily=332 conn=wye
New Load.Carga_IDSeta_2988 phases=3 bus1=X_2988.1.2.3.0 kv=0.38 kW=0.45810215297855544 pf=0.9 status=variable model=1 CVRwatts=0.8 CVRvars=3 Class=1 daily=332 conn=wye
New Load.Carga_IDSeta_833 phases=3 bus1=X_833.1.2.3.0 kv=0.38 kW=15.866166810144223 pf=0.9 status=variable model=1 CVRwatts=0.8 CVRvars=3 Class=1 daily=332 conn=wye
New Load.Carga_IDSeta_523 phases=3 bus1=X_523.1.2.3.0 kv=0.38 kW=8.399178386410167 pf=0.9 status=variable model=1 CVRwatts=0.8 CVRvars=3 Class=1 daily=332 conn=wye
New Load.Carga_IDSeta_1356 phases=3 bus1=X_1356.1.2.3.0 kv=0.38 kW=2.3208021799503524 pf=0.9 status=variable model=1 CVRwatts=0.8 CVRvars=3 Class=1 daily=333 conn=wye
New Load.Carga_IDSeta_1382 phases=3 bus1=X_1382.1.2.3.0 kv=0.38 kW=2.225009219427073 pf=0.9 status=variable model=1 CVRwatts=0.8 CVRvars=3 Class=1 daily=333 conn=wye
New Load.Carga_IDSeta_635 phases=3 bus1=X_635.1.2.3.0 kv=0.38 kW=0.3565146462510934 pf=0.9 status=variable model=1 CVRwatts=0.8 CVRvars=3 Class=1 daily=332 conn=wye
New Load.Carga_IDSeta_1355 phases=3 bus1=X_1355.1.2.3.0 kv=0.38 kW=57.24743515903982 pf=0.9 status=variable model=1 CVRwatts=0.8 CVRvars=3 Class=1 daily=332 conn=wye
New Load.Carga_IDSeta_1243 phases=3 bus1=X_1243.1.2.3.0 kv=0.38 kW=2.7907813168902793 pf=0.9 status=variable model=1 CVRwatts=0.8 CVRvars=3 Class=1 daily=332 conn=wye
New Load.Carga_IDSeta_1543 phases=3 bus1=X_1543.1.2.3.0 kv=0.38 kW=36.326216511774774 pf=0.9 status=variable model=1 CVRwatts=0.8 CVRvars=3 Class=1 daily=332 conn=wye
New Load.Carga_IDSeta_2 phases=3 bus1=X_2.1.2.3.0 kv=0.38 kW=7.343401269205008 pf=0.9 status=variable model=1 CVRwatts=0.8 CVRvars=3 Class=1 daily=333 conn=wye
New Load.Carga_IDSeta_2978 phases=3 bus1=X_2978.1.2.3.0 kv=0.38 kW=3.1002085405715776 pf=0.9 status=variable model=1 CVRwatts=0.8 CVRvars=3 Class=1 daily=333 conn=wye
New Load.Carga_IDSeta_2724 phases=3 bus1=X_2724.1.2.3.0 kv=0.38 kW=0.7467496695337437 pf=0.9 status=variable model=1 CVRwatts=0.8 CVRvars=3 Class=1 daily=333 conn=wye
New Load.Carga_IDSeta_2683 phases=3 bus1=X_2683.1.2.3.0 kv=0.38 kW=65.07158992246436 pf=0.9 status=variable model=1 CVRwatts=0.8 CVRvars=3 Class=1 daily=332 conn=wye
New Load.Carga_IDSeta_1352 phases=3 bus1=X_1352.1.2.3.0 kv=0.38 kW=133.29312091673583 pf=0.9 status=variable model=1 CVRwatts=0.8 CVRvars=3 Class=1 daily=332 conn=wye
New Load.Carga_IDSeta_1374 phases=3 bus1=X_1374.1.2.3.0 kv=0.38 kW=13.25046101899897 pf=0.9 status=variable model=1 CVRwatts=0.8 CVRvars=3 Class=1 daily=332 conn=wye
New Load.Carga_IDSeta_2977 phases=3 bus1=X_2977.1.2.3.0 kv=0.38 kW=6.244756545623991 pf=0.9 status=variable model=1 CVRwatts=0.8 CVRvars=3 Class=1 daily=332 conn=wye
New Load.Carga_IDSeta_2660 phases=3 bus1=X_2660.1.2.3.0 kv=0.38 kW=0.5347719693766401 pf=0.9 status=variable model=1 CVRwatts=0.8 CVRvars=3 Class=1 daily=332 conn=wye
New Load.Carga_IDSeta_2975 phases=3 bus1=X_2975.1.2.3.0 kv=0.38 kW=74.8364110785572 pf=0.9 status=variable model=1 CVRwatts=0.8 CVRvars=3 Class=1 daily=332 conn=wye
New Load.Carga_IDSeta_1353 phases=3 bus1=X_1353.1.2.3.0 kv=0.38 kW=21.34526023430874 pf=0.9 status=variable model=1 CVRwatts=0.8 CVRvars=3 Class=1 daily=332 conn=wye
...